
.MODEL 1 PMOS (
+   VTO =  -6
+   KP =  0.002
+   LAMBDA =  0
+   PHI =  0.6
+   GAMMA =  0
+   RD =  0
+   RS =  0
+   IS =  1e-14
+   CGBO =  0
+   CGDO =  0
+   CGSO =  0
+   CBD =  0
+   CBS =  0
+   PB =  0.8
+   RSH =  0
+   CJ =  0
+   MJ =  0.5
+   CJSW =  0
+   MJSW =  0.5
+   JS =  0
+   TOX =  1e-07
+   NSUB =  0
+   NSS =  0
+   TPG =  1
+   LD =  0
+   U0 =  600
+   KF =  0
+   AF =  1
+   FC =  0.5
+   TNOM =  27
)

.MODEL KP301 PMOS (
+   VTO =  -2
+   KP =  0.002
+   LAMBDA =  0
+   PHI =  0.6
+   GAMMA =  0
+   RD =  0
+   RS =  0
+   IS =  1e-14
+   CGBO =  0
+   CGDO =  0
+   CGSO =  0
+   CBD =  0
+   CBS =  0
+   PB =  0.8
+   RSH =  0
+   CJ =  0
+   MJ =  0.5
+   CJSW =  0
+   MJSW =  0.5
+   JS =  0
+   TOX =  1e-07
+   NSUB =  0
+   NSS =  0
+   TPG =  1
+   LD =  0
+   U0 =  600
+   KF =  0
+   AF =  1
+   FC =  0.5
+   TNOM =  27
)

.MODEL KP301A PMOS (
+   VTO =  -2.5
+   KP =  0.002
+   LAMBDA =  0
+   PHI =  0.6
+   GAMMA =  0
+   RD =  0
+   RS =  0
+   IS =  1e-14
+   CGBO =  0
+   CGDO =  0
+   CGSO =  0
+   CBD =  0
+   CBS =  0
+   PB =  0.8
+   RSH =  0
+   CJ =  0
+   MJ =  0.5
+   CJSW =  0
+   MJSW =  0.5
+   JS =  0
+   TOX =  1e-07
+   NSUB =  0
+   NSS =  0
+   TPG =  1
+   LD =  0
+   U0 =  600
+   KF =  0
+   AF =  1
+   FC =  0.5
+   TNOM =  27
)

.MODEL KP301B PMOS (
+   VTO =  -3
+   KP =  0.0018
+   LAMBDA =  0
+   PHI =  0.6
+   GAMMA =  0
+   RD =  0
+   RS =  0
+   IS =  1e-14
+   CGBO =  0
+   CGDO =  0
+   CGSO =  0
+   CBD =  0
+   CBS =  0
+   PB =  0.8
+   RSH =  0
+   CJ =  0
+   MJ =  0.5
+   CJSW =  0
+   MJSW =  0.5
+   JS =  0
+   TOX =  1e-07
+   NSUB =  0
+   NSS =  0
+   TPG =  1
+   LD =  0
+   U0 =  600
+   KF =  0
+   AF =  1
+   FC =  0.5
+   TNOM =  27
)

.MODEL KP301D PMOS (
+   VTO =  -3.5
+   KP =  0.0015
+   LAMBDA =  0
+   PHI =  0.6
+   GAMMA =  0
+   RD =  0
+   RS =  0
+   IS =  1e-14
+   CGBO =  0
+   CGDO =  0
+   CGSO =  0
+   CBD =  0
+   CBS =  0
+   PB =  0.8
+   RSH =  0
+   CJ =  0
+   MJ =  0.5
+   CJSW =  0
+   MJSW =  0.5
+   JS =  0
+   TOX =  1e-07
+   NSUB =  0
+   NSS =  0
+   TPG =  1
+   LD =  0
+   U0 =  600
+   KF =  0
+   AF =  1
+   FC =  0.5
+   TNOM =  27
)

.MODEL KP301E PMOS (
+   VTO =  -4
+   KP =  0.0012
+   LAMBDA =  0
+   PHI =  0.6
+   GAMMA =  0
+   RD =  0
+   RS =  0
+   IS =  1e-14
+   CGBO =  0
+   CGDO =  0
+   CGSO =  0
+   CBD =  0
+   CBS =  0
+   PB =  0.8
+   RSH =  0
+   CJ =  0
+   MJ =  0.5
+   CJSW =  0
+   MJSW =  0.5
+   JS =  0
+   TOX =  1e-07
+   NSUB =  0
+   NSS =  0
+   TPG =  1
+   LD =  0
+   U0 =  600
+   KF =  0
+   AF =  1
+   FC =  0.5
+   TNOM =  27
)

.MODEL KP301G PMOS (
+   VTO =  -4.5
+   KP =  0.0012
+   LAMBDA =  0
+   PHI =  0.6
+   GAMMA =  0
+   RD =  0
+   RS =  0
+   IS =  1e-14
+   CGBO =  0
+   CGDO =  0
+   CGSO =  0
+   CBD =  0
+   CBS =  0
+   PB =  0.8
+   RSH =  0
+   CJ =  0
+   MJ =  0.5
+   CJSW =  0
+   MJSW =  0.5
+   JS =  0
+   TOX =  1e-07
+   NSUB =  0
+   NSS =  0
+   TPG =  1
+   LD =  0
+   U0 =  600
+   KF =  0
+   AF =  1
+   FC =  0.5
+   TNOM =  27
)

.MODEL KP301I PMOS (
+   VTO =  -5
+   KP =  0.001
+   LAMBDA =  0
+   PHI =  0.6
+   GAMMA =  0
+   RD =  0
+   RS =  0
+   IS =  1e-14
+   CGBO =  0
+   CGDO =  0
+   CGSO =  0
+   CBD =  0
+   CBS =  0
+   PB =  0.8
+   RSH =  0
+   CJ =  0
+   MJ =  0.5
+   CJSW =  0
+   MJSW =  0.5
+   JS =  0
+   TOX =  1e-07
+   NSUB =  0
+   NSS =  0
+   TPG =  1
+   LD =  0
+   U0 =  600
+   KF =  0
+   AF =  1
+   FC =  0.5
+   TNOM =  27
)

.MODEL KP301J PMOS (
+   VTO =  -5.5
+   KP =  0.0011
+   LAMBDA =  0
+   PHI =  0.6
+   GAMMA =  0
+   RD =  0
+   RS =  0
+   IS =  1e-14
+   CGBO =  0
+   CGDO =  0
+   CGSO =  0
+   CBD =  0
+   CBS =  0
+   PB =  0.8
+   RSH =  0
+   CJ =  0
+   MJ =  0.5
+   CJSW =  0
+   MJSW =  0.5
+   JS =  0
+   TOX =  1e-07
+   NSUB =  0
+   NSS =  0
+   TPG =  1
+   LD =  0
+   U0 =  600
+   KF =  0
+   AF =  1
+   FC =  0.5
+   TNOM =  27
)

.MODEL KP301K PMOS (
+   VTO =  -2.5
+   KP =  0.0025
+   LAMBDA =  0
+   PHI =  0.6
+   GAMMA =  0
+   RD =  0
+   RS =  0
+   IS =  1e-14
+   CGBO =  0
+   CGDO =  0
+   CGSO =  0
+   CBD =  0
+   CBS =  0
+   PB =  0.8
+   RSH =  0
+   CJ =  0
+   MJ =  0.5
+   CJSW =  0
+   MJSW =  0.5
+   JS =  0
+   TOX =  1e-07
+   NSUB =  0
+   NSS =  0
+   TPG =  1
+   LD =  0
+   U0 =  600
+   KF =  0
+   AF =  1
+   FC =  0.5
+   TNOM =  27
)

.MODEL KP301V PMOS (
+   VTO =  -3
+   KP =  0.002
+   LAMBDA =  0
+   PHI =  0.6
+   GAMMA =  0
+   RD =  0
+   RS =  0
+   IS =  1e-14
+   CGBO =  0
+   CGDO =  0
+   CGSO =  0
+   CBD =  0
+   CBS =  0
+   PB =  0.8
+   RSH =  0
+   CJ =  0
+   MJ =  0.5
+   CJSW =  0
+   MJSW =  0.5
+   JS =  0
+   TOX =  1e-07
+   NSUB =  0
+   NSS =  0
+   TPG =  1
+   LD =  0
+   U0 =  600
+   KF =  0
+   AF =  1
+   FC =  0.5
+   TNOM =  27
)

.MODEL KP301Z PMOS (
+   VTO =  -3.5
+   KP =  0.0018
+   LAMBDA =  0
+   PHI =  0.6
+   GAMMA =  0
+   RD =  0
+   RS =  0
+   IS =  1e-14
+   CGBO =  0
+   CGDO =  0
+   CGSO =  0
+   CBD =  0
+   CBS =  0
+   PB =  0.8
+   RSH =  0
+   CJ =  0
+   MJ =  0.5
+   CJSW =  0
+   MJSW =  0.5
+   JS =  0
+   TOX =  1e-07
+   NSUB =  0
+   NSS =  0
+   TPG =  1
+   LD =  0
+   U0 =  600
+   KF =  0
+   AF =  1
+   FC =  0.5
+   TNOM =  27
)

.MODEL KP304A PMOS (
+   VTO =  -5
+   KP =  0.003
+   LAMBDA =  0
+   PHI =  0.6
+   GAMMA =  0
+   RD =  0
+   RS =  0
+   IS =  1e-14
+   CGBO =  0
+   CGDO =  0
+   CGSO =  0
+   CBD =  0
+   CBS =  0
+   PB =  0.8
+   RSH =  0
+   CJ =  0
+   MJ =  0.5
+   CJSW =  0
+   MJSW =  0.5
+   JS =  0
+   TOX =  1e-07
+   NSUB =  0
+   NSS =  0
+   TPG =  1
+   LD =  0
+   U0 =  600
+   KF =  0
+   AF =  1
+   FC =  0.5
+   TNOM =  27
)

.MODEL KP304B PMOS (
+   VTO =  -5.2
+   KP =  0.0028
+   LAMBDA =  0
+   PHI =  0.6
+   GAMMA =  0
+   RD =  0
+   RS =  0
+   IS =  1e-14
+   CGBO =  0
+   CGDO =  0
+   CGSO =  0
+   CBD =  0
+   CBS =  0
+   PB =  0.8
+   RSH =  0
+   CJ =  0
+   MJ =  0.5
+   CJSW =  0
+   MJSW =  0.5
+   JS =  0
+   TOX =  1e-07
+   NSUB =  0
+   NSS =  0
+   TPG =  1
+   LD =  0
+   U0 =  600
+   KF =  0
+   AF =  1
+   FC =  0.5
+   TNOM =  27
)

.MODEL KP304D PMOS (
+   VTO =  -5.4
+   KP =  0.0032
+   LAMBDA =  0
+   PHI =  0.6
+   GAMMA =  0
+   RD =  0
+   RS =  0
+   IS =  1e-14
+   CGBO =  0
+   CGDO =  0
+   CGSO =  0
+   CBD =  0
+   CBS =  0
+   PB =  0.8
+   RSH =  0
+   CJ =  0
+   MJ =  0.5
+   CJSW =  0
+   MJSW =  0.5
+   JS =  0
+   TOX =  1e-07
+   NSUB =  0
+   NSS =  0
+   TPG =  1
+   LD =  0
+   U0 =  600
+   KF =  0
+   AF =  1
+   FC =  0.5
+   TNOM =  27
)

.MODEL KP304E PMOS (
+   VTO =  -4.8
+   KP =  0.0035
+   LAMBDA =  0
+   PHI =  0.6
+   GAMMA =  0
+   RD =  0
+   RS =  0
+   IS =  1e-14
+   CGBO =  0
+   CGDO =  0
+   CGSO =  0
+   CBD =  0
+   CBS =  0
+   PB =  0.8
+   RSH =  0
+   CJ =  0
+   MJ =  0.5
+   CJSW =  0
+   MJSW =  0.5
+   JS =  0
+   TOX =  1e-07
+   NSUB =  0
+   NSS =  0
+   TPG =  1
+   LD =  0
+   U0 =  600
+   KF =  0
+   AF =  1
+   FC =  0.5
+   TNOM =  27
)

.MODEL KP304G PMOS (
+   VTO =  -4.6
+   KP =  0.004
+   LAMBDA =  0
+   PHI =  0.6
+   GAMMA =  0
+   RD =  0
+   RS =  0
+   IS =  1e-14
+   CGBO =  0
+   CGDO =  0
+   CGSO =  0
+   CBD =  0
+   CBS =  0
+   PB =  0.8
+   RSH =  0
+   CJ =  0
+   MJ =  0.5
+   CJSW =  0
+   MJSW =  0.5
+   JS =  0
+   TOX =  1e-07
+   NSUB =  0
+   NSS =  0
+   TPG =  1
+   LD =  0
+   U0 =  600
+   KF =  0
+   AF =  1
+   FC =  0.5
+   TNOM =  27
)

.MODEL KP304I PMOS (
+   VTO =  -4.5
+   KP =  0.0042
+   LAMBDA =  0
+   PHI =  0.6
+   GAMMA =  0
+   RD =  0
+   RS =  0
+   IS =  1e-14
+   CGBO =  0
+   CGDO =  0
+   CGSO =  0
+   CBD =  0
+   CBS =  0
+   PB =  0.8
+   RSH =  0
+   CJ =  0
+   MJ =  0.5
+   CJSW =  0
+   MJSW =  0.5
+   JS =  0
+   TOX =  1e-07
+   NSUB =  0
+   NSS =  0
+   TPG =  1
+   LD =  0
+   U0 =  600
+   KF =  0
+   AF =  1
+   FC =  0.5
+   TNOM =  27
)

.MODEL KP304J PMOS (
+   VTO =  -5
+   KP =  0.0032
+   LAMBDA =  0
+   PHI =  0.6
+   GAMMA =  0
+   RD =  0
+   RS =  0
+   IS =  1e-14
+   CGBO =  0
+   CGDO =  0
+   CGSO =  0
+   CBD =  0
+   CBS =  0
+   PB =  0.8
+   RSH =  0
+   CJ =  0
+   MJ =  0.5
+   CJSW =  0
+   MJSW =  0.5
+   JS =  0
+   TOX =  1e-07
+   NSUB =  0
+   NSS =  0
+   TPG =  1
+   LD =  0
+   U0 =  600
+   KF =  0
+   AF =  1
+   FC =  0.5
+   TNOM =  27
)

.MODEL KP304K PMOS (
+   VTO =  -5.2
+   KP =  0.003
+   LAMBDA =  0
+   PHI =  0.6
+   GAMMA =  0
+   RD =  0
+   RS =  0
+   IS =  1e-14
+   CGBO =  0
+   CGDO =  0
+   CGSO =  0
+   CBD =  0
+   CBS =  0
+   PB =  0.8
+   RSH =  0
+   CJ =  0
+   MJ =  0.5
+   CJSW =  0
+   MJSW =  0.5
+   JS =  0
+   TOX =  1e-07
+   NSUB =  0
+   NSS =  0
+   TPG =  1
+   LD =  0
+   U0 =  600
+   KF =  0
+   AF =  1
+   FC =  0.5
+   TNOM =  27
)

.MODEL KP304V PMOS (
+   VTO =  -5.4
+   KP =  0.0035
+   LAMBDA =  0
+   PHI =  0.6
+   GAMMA =  0
+   RD =  0
+   RS =  0
+   IS =  1e-14
+   CGBO =  0
+   CGDO =  0
+   CGSO =  0
+   CBD =  0
+   CBS =  0
+   PB =  0.8
+   RSH =  0
+   CJ =  0
+   MJ =  0.5
+   CJSW =  0
+   MJSW =  0.5
+   JS =  0
+   TOX =  1e-07
+   NSUB =  0
+   NSS =  0
+   TPG =  1
+   LD =  0
+   U0 =  600
+   KF =  0
+   AF =  1
+   FC =  0.5
+   TNOM =  27
)

.MODEL KP304Z PMOS (
+   VTO =  -4.8
+   KP =  0.004
+   LAMBDA =  0
+   PHI =  0.6
+   GAMMA =  0
+   RD =  0
+   RS =  0
+   IS =  1e-14
+   CGBO =  0
+   CGDO =  0
+   CGSO =  0
+   CBD =  0
+   CBS =  0
+   PB =  0.8
+   RSH =  0
+   CJ =  0
+   MJ =  0.5
+   CJSW =  0
+   MJSW =  0.5
+   JS =  0
+   TOX =  1e-07
+   NSUB =  0
+   NSS =  0
+   TPG =  1
+   LD =  0
+   U0 =  600
+   KF =  0
+   AF =  1
+   FC =  0.5
+   TNOM =  27
)
