
.MODEL KP305A NMOS (
+   VTO =  -1
+   KP =  0.002
+   LAMBDA =  0
+   PHI =  0.6
+   GAMMA =  0
+   RD =  0
+   RS =  0
+   IS =  1e-14
+   CGBO =  0
+   CGDO =  0
+   CGSO =  0
+   CBD =  0
+   CBS =  0
+   PB =  0.8
+   RSH =  0
+   CJ =  0
+   MJ =  0.5
+   CJSW =  0
+   MJSW =  0.5
+   JS =  0
+   TOX =  1e-07
+   NSUB =  0
+   NSS =  0
+   TPG =  1
+   LD =  0
+   U0 =  600
+   KF =  0
+   AF =  1
+   FC =  0.5
+   TNOM =  27
)

.MODEL KP305B NMOS (
+   VTO =  -2
+   KP =  0.002
+   LAMBDA =  0
+   PHI =  0.6
+   GAMMA =  0
+   RD =  0
+   RS =  0
+   IS =  1e-14
+   CGBO =  0
+   CGDO =  0
+   CGSO =  0
+   CBD =  0
+   CBS =  0
+   PB =  0.8
+   RSH =  0
+   CJ =  0
+   MJ =  0.5
+   CJSW =  0
+   MJSW =  0.5
+   JS =  0
+   TOX =  1e-07
+   NSUB =  0
+   NSS =  0
+   TPG =  1
+   LD =  0
+   U0 =  600
+   KF =  0
+   AF =  1
+   FC =  0.5
+   TNOM =  27
)

.MODEL KP305D NMOS (
+   VTO =  -1.5
+   KP =  0.0025
+   LAMBDA =  0
+   PHI =  0.6
+   GAMMA =  0
+   RD =  0
+   RS =  0
+   IS =  1e-14
+   CGBO =  0
+   CGDO =  0
+   CGSO =  0
+   CBD =  0
+   CBS =  0
+   PB =  0.8
+   RSH =  0
+   CJ =  0
+   MJ =  0.5
+   CJSW =  0
+   MJSW =  0.5
+   JS =  0
+   TOX =  1e-07
+   NSUB =  0
+   NSS =  0
+   TPG =  1
+   LD =  0
+   U0 =  600
+   KF =  0
+   AF =  1
+   FC =  0.5
+   TNOM =  27
)

.MODEL KP305E NMOS (
+   VTO =  -2
+   KP =  0.0015
+   LAMBDA =  0
+   PHI =  0.6
+   GAMMA =  0
+   RD =  0
+   RS =  0
+   IS =  1e-14
+   CGBO =  0
+   CGDO =  0
+   CGSO =  0
+   CBD =  0
+   CBS =  0
+   PB =  0.8
+   RSH =  0
+   CJ =  0
+   MJ =  0.5
+   CJSW =  0
+   MJSW =  0.5
+   JS =  0
+   TOX =  1e-07
+   NSUB =  0
+   NSS =  0
+   TPG =  1
+   LD =  0
+   U0 =  600
+   KF =  0
+   AF =  1
+   FC =  0.5
+   TNOM =  27
)

.MODEL KP305G NMOS (
+   VTO =  -0.5
+   KP =  0.003
+   LAMBDA =  0
+   PHI =  0.6
+   GAMMA =  0
+   RD =  0
+   RS =  0
+   IS =  1e-14
+   CGBO =  0
+   CGDO =  0
+   CGSO =  0
+   CBD =  0
+   CBS =  0
+   PB =  0.8
+   RSH =  0
+   CJ =  0
+   MJ =  0.5
+   CJSW =  0
+   MJSW =  0.5
+   JS =  0
+   TOX =  1e-07
+   NSUB =  0
+   NSS =  0
+   TPG =  1
+   LD =  0
+   U0 =  600
+   KF =  0
+   AF =  1
+   FC =  0.5
+   TNOM =  27
)

.MODEL KP305I NMOS (
+   VTO =  -2.25
+   KP =  0.002
+   LAMBDA =  0
+   PHI =  0.6
+   GAMMA =  0
+   RD =  0
+   RS =  0
+   IS =  1e-14
+   CGBO =  0
+   CGDO =  0
+   CGSO =  0
+   CBD =  0
+   CBS =  0
+   PB =  0.8
+   RSH =  0
+   CJ =  0
+   MJ =  0.5
+   CJSW =  0
+   MJSW =  0.5
+   JS =  0
+   TOX =  1e-07
+   NSUB =  0
+   NSS =  0
+   TPG =  1
+   LD =  0
+   U0 =  600
+   KF =  0
+   AF =  1
+   FC =  0.5
+   TNOM =  27
)

.MODEL KP305J NMOS (
+   VTO =  -0.75
+   KP =  0.0035
+   LAMBDA =  0
+   PHI =  0.6
+   GAMMA =  0
+   RD =  0
+   RS =  0
+   IS =  1e-14
+   CGBO =  0
+   CGDO =  0
+   CGSO =  0
+   CBD =  0
+   CBS =  0
+   PB =  0.8
+   RSH =  0
+   CJ =  0
+   MJ =  0.5
+   CJSW =  0
+   MJSW =  0.5
+   JS =  0
+   TOX =  1e-07
+   NSUB =  0
+   NSS =  0
+   TPG =  1
+   LD =  0
+   U0 =  600
+   KF =  0
+   AF =  1
+   FC =  0.5
+   TNOM =  27
)

.MODEL KP305K NMOS (
+   VTO =  -2.5
+   KP =  0.0012
+   LAMBDA =  0
+   PHI =  0.6
+   GAMMA =  0
+   RD =  0
+   RS =  0
+   IS =  1e-14
+   CGBO =  0
+   CGDO =  0
+   CGSO =  0
+   CBD =  0
+   CBS =  0
+   PB =  0.8
+   RSH =  0
+   CJ =  0
+   MJ =  0.5
+   CJSW =  0
+   MJSW =  0.5
+   JS =  0
+   TOX =  1e-07
+   NSUB =  0
+   NSS =  0
+   TPG =  1
+   LD =  0
+   U0 =  600
+   KF =  0
+   AF =  1
+   FC =  0.5
+   TNOM =  27
)

.MODEL KP305V NMOS (
+   VTO =  -1.75
+   KP =  0.00175
+   LAMBDA =  0
+   PHI =  0.6
+   GAMMA =  0
+   RD =  0
+   RS =  0
+   IS =  1e-14
+   CGBO =  0
+   CGDO =  0
+   CGSO =  0
+   CBD =  0
+   CBS =  0
+   PB =  0.8
+   RSH =  0
+   CJ =  0
+   MJ =  0.5
+   CJSW =  0
+   MJSW =  0.5
+   JS =  0
+   TOX =  1e-07
+   NSUB =  0
+   NSS =  0
+   TPG =  1
+   LD =  0
+   U0 =  600
+   KF =  0
+   AF =  1
+   FC =  0.5
+   TNOM =  27
)

.MODEL KP305Z NMOS (
+   VTO =  -1.25
+   KP =  0.0025
+   LAMBDA =  0
+   PHI =  0.6
+   GAMMA =  0
+   RD =  0
+   RS =  0
+   IS =  1e-14
+   CGBO =  0
+   CGDO =  0
+   CGSO =  0
+   CBD =  0
+   CBS =  0
+   PB =  0.8
+   RSH =  0
+   CJ =  0
+   MJ =  0.5
+   CJSW =  0
+   MJSW =  0.5
+   JS =  0
+   TOX =  1e-07
+   NSUB =  0
+   NSS =  0
+   TPG =  1
+   LD =  0
+   U0 =  600
+   KF =  0
+   AF =  1
+   FC =  0.5
+   TNOM =  27
)

.MODEL KP310A NMOS (
+   VTO =  -3
+   KP =  0.003
+   LAMBDA =  0
+   PHI =  0.6
+   GAMMA =  0
+   RD =  0
+   RS =  0
+   IS =  1e-14
+   CGBO =  0
+   CGDO =  0
+   CGSO =  0
+   CBD =  0
+   CBS =  0
+   PB =  0.8
+   RSH =  0
+   CJ =  0
+   MJ =  0.5
+   CJSW =  0
+   MJSW =  0.5
+   JS =  0
+   TOX =  1e-07
+   NSUB =  0
+   NSS =  0
+   TPG =  1
+   LD =  0
+   U0 =  600
+   KF =  0
+   AF =  1
+   FC =  0.5
+   TNOM =  27
)

.MODEL KP310B NMOS (
+   VTO =  -3
+   KP =  0.0035
+   LAMBDA =  0
+   PHI =  0.6
+   GAMMA =  0
+   RD =  0
+   RS =  0
+   IS =  1e-14
+   CGBO =  0
+   CGDO =  0
+   CGSO =  0
+   CBD =  0
+   CBS =  0
+   PB =  0.8
+   RSH =  0
+   CJ =  0
+   MJ =  0.5
+   CJSW =  0
+   MJSW =  0.5
+   JS =  0
+   TOX =  1e-07
+   NSUB =  0
+   NSS =  0
+   TPG =  1
+   LD =  0
+   U0 =  600
+   KF =  0
+   AF =  1
+   FC =  0.5
+   TNOM =  27
)

.MODEL KP310D NMOS (
+   VTO =  -3.5
+   KP =  0.005
+   LAMBDA =  0
+   PHI =  0.6
+   GAMMA =  0
+   RD =  0
+   RS =  0
+   IS =  1e-14
+   CGBO =  0
+   CGDO =  0
+   CGSO =  0
+   CBD =  0
+   CBS =  0
+   PB =  0.8
+   RSH =  0
+   CJ =  0
+   MJ =  0.5
+   CJSW =  0
+   MJSW =  0.5
+   JS =  0
+   TOX =  1e-07
+   NSUB =  0
+   NSS =  0
+   TPG =  1
+   LD =  0
+   U0 =  600
+   KF =  0
+   AF =  1
+   FC =  0.5
+   TNOM =  27
)

.MODEL KP310E NMOS (
+   VTO =  -3.5
+   KP =  0.005
+   LAMBDA =  0
+   PHI =  0.6
+   GAMMA =  0
+   RD =  0
+   RS =  0
+   IS =  1e-14
+   CGBO =  0
+   CGDO =  0
+   CGSO =  0
+   CBD =  0
+   CBS =  0
+   PB =  0.8
+   RSH =  0
+   CJ =  0
+   MJ =  0.5
+   CJSW =  0
+   MJSW =  0.5
+   JS =  0
+   TOX =  1e-07
+   NSUB =  0
+   NSS =  0
+   TPG =  1
+   LD =  0
+   U0 =  600
+   KF =  0
+   AF =  1
+   FC =  0.5
+   TNOM =  27
)

.MODEL KP310G NMOS (
+   VTO =  -3
+   KP =  0.0045
+   LAMBDA =  0
+   PHI =  0.6
+   GAMMA =  0
+   RD =  0
+   RS =  0
+   IS =  1e-14
+   CGBO =  0
+   CGDO =  0
+   CGSO =  0
+   CBD =  0
+   CBS =  0
+   PB =  0.8
+   RSH =  0
+   CJ =  0
+   MJ =  0.5
+   CJSW =  0
+   MJSW =  0.5
+   JS =  0
+   TOX =  1e-07
+   NSUB =  0
+   NSS =  0
+   TPG =  1
+   LD =  0
+   U0 =  600
+   KF =  0
+   AF =  1
+   FC =  0.5
+   TNOM =  27
)

.MODEL KP310J NMOS (
+   VTO =  -3
+   KP =  0.003
+   LAMBDA =  0
+   PHI =  0.6
+   GAMMA =  0
+   RD =  0
+   RS =  0
+   IS =  1e-14
+   CGBO =  0
+   CGDO =  0
+   CGSO =  0
+   CBD =  0
+   CBS =  0
+   PB =  0.8
+   RSH =  0
+   CJ =  0
+   MJ =  0.5
+   CJSW =  0
+   MJSW =  0.5
+   JS =  0
+   TOX =  1e-07
+   NSUB =  0
+   NSS =  0
+   TPG =  1
+   LD =  0
+   U0 =  600
+   KF =  0
+   AF =  1
+   FC =  0.5
+   TNOM =  27
)

.MODEL KP310K NMOS (
+   VTO =  -3
+   KP =  0.003
+   LAMBDA =  0
+   PHI =  0.6
+   GAMMA =  0
+   RD =  0
+   RS =  0
+   IS =  1e-14
+   CGBO =  0
+   CGDO =  0
+   CGSO =  0
+   CBD =  0
+   CBS =  0
+   PB =  0.8
+   RSH =  0
+   CJ =  0
+   MJ =  0.5
+   CJSW =  0
+   MJSW =  0.5
+   JS =  0
+   TOX =  1e-07
+   NSUB =  0
+   NSS =  0
+   TPG =  1
+   LD =  0
+   U0 =  600
+   KF =  0
+   AF =  1
+   FC =  0.5
+   TNOM =  27
)

.MODEL KP310L NMOS (
+   VTO =  -3
+   KP =  0.003
+   LAMBDA =  0
+   PHI =  0.6
+   GAMMA =  0
+   RD =  0
+   RS =  0
+   IS =  1e-14
+   CGBO =  0
+   CGDO =  0
+   CGSO =  0
+   CBD =  0
+   CBS =  0
+   PB =  0.8
+   RSH =  0
+   CJ =  0
+   MJ =  0.5
+   CJSW =  0
+   MJSW =  0.5
+   JS =  0
+   TOX =  1e-07
+   NSUB =  0
+   NSS =  0
+   TPG =  1
+   LD =  0
+   U0 =  600
+   KF =  0
+   AF =  1
+   FC =  0.5
+   TNOM =  27
)

.MODEL KP310V NMOS (
+   VTO =  -3
+   KP =  0.004
+   LAMBDA =  0
+   PHI =  0.6
+   GAMMA =  0
+   RD =  0
+   RS =  0
+   IS =  1e-14
+   CGBO =  0
+   CGDO =  0
+   CGSO =  0
+   CBD =  0
+   CBS =  0
+   PB =  0.8
+   RSH =  0
+   CJ =  0
+   MJ =  0.5
+   CJSW =  0
+   MJSW =  0.5
+   JS =  0
+   TOX =  1e-07
+   NSUB =  0
+   NSS =  0
+   TPG =  1
+   LD =  0
+   U0 =  600
+   KF =  0
+   AF =  1
+   FC =  0.5
+   TNOM =  27
)

.MODEL KP310Z NMOS (
+   VTO =  -3
+   KP =  0.003
+   LAMBDA =  0
+   PHI =  0.6
+   GAMMA =  0
+   RD =  0
+   RS =  0
+   IS =  1e-14
+   CGBO =  0
+   CGDO =  0
+   CGSO =  0
+   CBD =  0
+   CBS =  0
+   PB =  0.8
+   RSH =  0
+   CJ =  0
+   MJ =  0.5
+   CJSW =  0
+   MJSW =  0.5
+   JS =  0
+   TOX =  1e-07
+   NSUB =  0
+   NSS =  0
+   TPG =  1
+   LD =  0
+   U0 =  600
+   KF =  0
+   AF =  1
+   FC =  0.5
+   TNOM =  27
)

.MODEL KP313A NMOS (
+   VTO =  -1
+   KP =  0.002
+   LAMBDA =  0
+   PHI =  0.6
+   GAMMA =  0
+   RD =  0
+   RS =  0
+   IS =  1e-14
+   CGBO =  0
+   CGDO =  0
+   CGSO =  0
+   CBD =  0
+   CBS =  0
+   PB =  0.8
+   RSH =  0
+   CJ =  0
+   MJ =  0.5
+   CJSW =  0
+   MJSW =  0.5
+   JS =  0
+   TOX =  1e-07
+   NSUB =  0
+   NSS =  0
+   TPG =  1
+   LD =  0
+   U0 =  600
+   KF =  0
+   AF =  1
+   FC =  0.5
+   TNOM =  27
)

.MODEL KP313B NMOS (
+   VTO =  -1.5
+   KP =  0.002
+   LAMBDA =  0
+   PHI =  0.6
+   GAMMA =  0
+   RD =  0
+   RS =  0
+   IS =  1e-14
+   CGBO =  0
+   CGDO =  0
+   CGSO =  0
+   CBD =  0
+   CBS =  0
+   PB =  0.8
+   RSH =  0
+   CJ =  0
+   MJ =  0.5
+   CJSW =  0
+   MJSW =  0.5
+   JS =  0
+   TOX =  1e-07
+   NSUB =  0
+   NSS =  0
+   TPG =  1
+   LD =  0
+   U0 =  600
+   KF =  0
+   AF =  1
+   FC =  0.5
+   TNOM =  27
)

.MODEL KP313D NMOS (
+   VTO =  -2.5
+   KP =  0.0015
+   LAMBDA =  0
+   PHI =  0.6
+   GAMMA =  0
+   RD =  0
+   RS =  0
+   IS =  1e-14
+   CGBO =  0
+   CGDO =  0
+   CGSO =  0
+   CBD =  0
+   CBS =  0
+   PB =  0.8
+   RSH =  0
+   CJ =  0
+   MJ =  0.5
+   CJSW =  0
+   MJSW =  0.5
+   JS =  0
+   TOX =  1e-07
+   NSUB =  0
+   NSS =  0
+   TPG =  1
+   LD =  0
+   U0 =  600
+   KF =  0
+   AF =  1
+   FC =  0.5
+   TNOM =  27
)

.MODEL KP313E NMOS (
+   VTO =  -2.5
+   KP =  0.0025
+   LAMBDA =  0
+   PHI =  0.6
+   GAMMA =  0
+   RD =  0
+   RS =  0
+   IS =  1e-14
+   CGBO =  0
+   CGDO =  0
+   CGSO =  0
+   CBD =  0
+   CBS =  0
+   PB =  0.8
+   RSH =  0
+   CJ =  0
+   MJ =  0.5
+   CJSW =  0
+   MJSW =  0.5
+   JS =  0
+   TOX =  1e-07
+   NSUB =  0
+   NSS =  0
+   TPG =  1
+   LD =  0
+   U0 =  600
+   KF =  0
+   AF =  1
+   FC =  0.5
+   TNOM =  27
)

.MODEL KP313G NMOS (
+   VTO =  -0.75
+   KP =  0.0025
+   LAMBDA =  0
+   PHI =  0.6
+   GAMMA =  0
+   RD =  0
+   RS =  0
+   IS =  1e-14
+   CGBO =  0
+   CGDO =  0
+   CGSO =  0
+   CBD =  0
+   CBS =  0
+   PB =  0.8
+   RSH =  0
+   CJ =  0
+   MJ =  0.5
+   CJSW =  0
+   MJSW =  0.5
+   JS =  0
+   TOX =  1e-07
+   NSUB =  0
+   NSS =  0
+   TPG =  1
+   LD =  0
+   U0 =  600
+   KF =  0
+   AF =  1
+   FC =  0.5
+   TNOM =  27
)

.MODEL KP313I NMOS (
+   VTO =  -2.25
+   KP =  0.00175
+   LAMBDA =  0
+   PHI =  0.6
+   GAMMA =  0
+   RD =  0
+   RS =  0
+   IS =  1e-14
+   CGBO =  0
+   CGDO =  0
+   CGSO =  0
+   CBD =  0
+   CBS =  0
+   PB =  0.8
+   RSH =  0
+   CJ =  0
+   MJ =  0.5
+   CJSW =  0
+   MJSW =  0.5
+   JS =  0
+   TOX =  1e-07
+   NSUB =  0
+   NSS =  0
+   TPG =  1
+   LD =  0
+   U0 =  600
+   KF =  0
+   AF =  1
+   FC =  0.5
+   TNOM =  27
)

.MODEL KP313J NMOS (
+   VTO =  -1.25
+   KP =  0.002
+   LAMBDA =  0
+   PHI =  0.6
+   GAMMA =  0
+   RD =  0
+   RS =  0
+   IS =  1e-14
+   CGBO =  0
+   CGDO =  0
+   CGSO =  0
+   CBD =  0
+   CBS =  0
+   PB =  0.8
+   RSH =  0
+   CJ =  0
+   MJ =  0.5
+   CJSW =  0
+   MJSW =  0.5
+   JS =  0
+   TOX =  1e-07
+   NSUB =  0
+   NSS =  0
+   TPG =  1
+   LD =  0
+   U0 =  600
+   KF =  0
+   AF =  1
+   FC =  0.5
+   TNOM =  27
)

.MODEL KP313K NMOS (
+   VTO =  -1.75
+   KP =  0.0025
+   LAMBDA =  0
+   PHI =  0.6
+   GAMMA =  0
+   RD =  0
+   RS =  0
+   IS =  1e-14
+   CGBO =  0
+   CGDO =  0
+   CGSO =  0
+   CBD =  0
+   CBS =  0
+   PB =  0.8
+   RSH =  0
+   CJ =  0
+   MJ =  0.5
+   CJSW =  0
+   MJSW =  0.5
+   JS =  0
+   TOX =  1e-07
+   NSUB =  0
+   NSS =  0
+   TPG =  1
+   LD =  0
+   U0 =  600
+   KF =  0
+   AF =  1
+   FC =  0.5
+   TNOM =  27
)

.MODEL KP313V NMOS (
+   VTO =  -2
+   KP =  0.001
+   LAMBDA =  0
+   PHI =  0.6
+   GAMMA =  0
+   RD =  0
+   RS =  0
+   IS =  1e-14
+   CGBO =  0
+   CGDO =  0
+   CGSO =  0
+   CBD =  0
+   CBS =  0
+   PB =  0.8
+   RSH =  0
+   CJ =  0
+   MJ =  0.5
+   CJSW =  0
+   MJSW =  0.5
+   JS =  0
+   TOX =  1e-07
+   NSUB =  0
+   NSS =  0
+   TPG =  1
+   LD =  0
+   U0 =  600
+   KF =  0
+   AF =  1
+   FC =  0.5
+   TNOM =  27
)

.MODEL KP313Z NMOS (
+   VTO =  -3
+   KP =  0.0015
+   LAMBDA =  0
+   PHI =  0.6
+   GAMMA =  0
+   RD =  0
+   RS =  0
+   IS =  1e-14
+   CGBO =  0
+   CGDO =  0
+   CGSO =  0
+   CBD =  0
+   CBS =  0
+   PB =  0.8
+   RSH =  0
+   CJ =  0
+   MJ =  0.5
+   CJSW =  0
+   MJSW =  0.5
+   JS =  0
+   TOX =  1e-07
+   NSUB =  0
+   NSS =  0
+   TPG =  1
+   LD =  0
+   U0 =  600
+   KF =  0
+   AF =  1
+   FC =  0.5
+   TNOM =  27
)
