
.MODEL D814A D (
+   IS =  9.128e-06
+   RS =  0.05954
+   CJO =  1e-12
+   VJ =  0.75
+   TT =  5e-09
+   M =  0.3333
+   BV =  8
+   IBV =  0.058
+   N =  1
+   EG =  1.11
+   XTI =  3
+   KF =  0
+   AF =  1
+   FC =  0.5
+   TNOM =  27
)

.MODEL D814B D (
+   IS =  9.128e-06
+   RS =  0.05954
+   CJO =  1e-12
+   VJ =  0.75
+   TT =  5e-09
+   M =  0.3333
+   BV =  9
+   IBV =  0.058
+   N =  1
+   EG =  1.11
+   XTI =  3
+   KF =  0
+   AF =  1
+   FC =  0.5
+   TNOM =  27
)

.MODEL D814D D (
+   IS =  9.128e-06
+   RS =  0.05954
+   CJO =  1e-12
+   VJ =  0.75
+   TT =  5e-09
+   M =  0.3333
+   BV =  12
+   IBV =  0.058
+   N =  1
+   EG =  1.11
+   XTI =  3
+   KF =  0
+   AF =  1
+   FC =  0.5
+   TNOM =  27
)

.MODEL D814G D (
+   IS =  9.128e-06
+   RS =  0.05954
+   CJO =  1e-12
+   VJ =  0.75
+   TT =  5e-09
+   M =  0.3333
+   BV =  11
+   IBV =  0.058
+   N =  1
+   EG =  1.11
+   XTI =  3
+   KF =  0
+   AF =  1
+   FC =  0.5
+   TNOM =  27
)

.MODEL D814V D (
+   IS =  9.128e-06
+   RS =  0.05954
+   CJO =  1e-12
+   VJ =  0.75
+   TT =  5e-09
+   M =  0.3333
+   BV =  10
+   IBV =  0.058
+   N =  1
+   EG =  1.11
+   XTI =  3
+   KF =  0
+   AF =  1
+   FC =  0.5
+   TNOM =  27
)

.MODEL KC133 D (
+   IS =  5.038e-12
+   RS =  0.001
+   CJO =  1e-12
+   VJ =  0.75
+   TT =  5e-09
+   M =  0.3333
+   BV =  3.305
+   IBV =  0.03
+   N =  1
+   EG =  1.11
+   XTI =  3
+   KF =  0
+   AF =  1
+   FC =  0.5
+   TNOM =  27
)

.MODEL KC139 D (
+   IS =  5.038e-12
+   RS =  0.001
+   CJO =  1e-12
+   VJ =  0.75
+   TT =  5e-09
+   M =  0.3333
+   BV =  3.9
+   IBV =  0.01404
+   N =  1
+   EG =  1.11
+   XTI =  3
+   KF =  0
+   AF =  1
+   FC =  0.5
+   TNOM =  27
)

.MODEL KC147 D (
+   IS =  5.038e-12
+   RS =  0.001
+   CJO =  1e-12
+   VJ =  0.75
+   TT =  5e-09
+   M =  0.3333
+   BV =  4.7
+   IBV =  0.07101
+   N =  1
+   EG =  1.11
+   XTI =  3
+   KF =  0
+   AF =  1
+   FC =  0.5
+   TNOM =  27
)

.MODEL KC156 D (
+   IS =  4.1e-14
+   RS =  4.42
+   CJO =  2.03e-09
+   VJ =  0.75
+   TT =  4.87e-07
+   M =  0.333
+   BV =  5.6
+   IBV =  0.045
+   N =  1
+   EG =  1.11
+   XTI =  3
+   KF =  0
+   AF =  1
+   FC =  0.5
+   TNOM =  27
)

.MODEL KC162 D (
+   IS =  9.128e-06
+   RS =  0.05954
+   CJO =  1e-12
+   VJ =  0.75
+   TT =  5e-09
+   M =  0.3333
+   BV =  6.2
+   IBV =  0.3251
+   N =  1
+   EG =  1.11
+   XTI =  3
+   KF =  0
+   AF =  1
+   FC =  0.5
+   TNOM =  27
)

.MODEL KC168 D (
+   IS =  9.128e-06
+   RS =  0.05954
+   CJO =  1e-12
+   VJ =  0.75
+   TT =  5e-09
+   M =  0.3333
+   BV =  6.8
+   IBV =  0.2411
+   N =  1
+   EG =  1.11
+   XTI =  3
+   KF =  0
+   AF =  1
+   FC =  0.5
+   TNOM =  27
)

.MODEL KC175 D (
+   IS =  9.128e-06
+   RS =  0.05954
+   CJO =  1e-12
+   VJ =  0.75
+   TT =  5e-09
+   M =  0.3333
+   BV =  7.5
+   IBV =  0.2411
+   N =  1
+   EG =  1.11
+   XTI =  3
+   KF =  0
+   AF =  1
+   FC =  0.5
+   TNOM =  27
)

.MODEL KC182 D (
+   IS =  9.128e-06
+   RS =  0.05954
+   CJO =  1e-12
+   VJ =  0.75
+   TT =  5e-09
+   M =  0.3333
+   BV =  8.2
+   IBV =  0.2411
+   N =  1
+   EG =  1.11
+   XTI =  3
+   KF =  0
+   AF =  1
+   FC =  0.5
+   TNOM =  27
)

.MODEL KC191 D (
+   IS =  9.128e-06
+   RS =  0.05954
+   CJO =  1e-12
+   VJ =  0.75
+   TT =  5e-09
+   M =  0.3333
+   BV =  9.1
+   IBV =  0.2411
+   N =  1
+   EG =  1.11
+   XTI =  3
+   KF =  0
+   AF =  1
+   FC =  0.5
+   TNOM =  27
)

.MODEL KC210 D (
+   IS =  9.128e-06
+   RS =  0.05954
+   CJO =  1e-12
+   VJ =  0.75
+   TT =  5e-09
+   M =  0.3333
+   BV =  10
+   IBV =  0.2411
+   N =  1
+   EG =  1.11
+   XTI =  3
+   KF =  0
+   AF =  1
+   FC =  0.5
+   TNOM =  27
)

.MODEL KC211 D (
+   IS =  9.128e-06
+   RS =  0.05954
+   CJO =  1e-12
+   VJ =  0.75
+   TT =  5e-09
+   M =  0.3333
+   BV =  11
+   IBV =  0.2411
+   N =  1
+   EG =  1.11
+   XTI =  3
+   KF =  0
+   AF =  1
+   FC =  0.5
+   TNOM =  27
)

.MODEL KC212 D (
+   IS =  9.128e-06
+   RS =  0.05954
+   CJO =  1e-12
+   VJ =  0.75
+   TT =  5e-09
+   M =  0.3333
+   BV =  12
+   IBV =  0.2411
+   N =  1
+   EG =  1.11
+   XTI =  3
+   KF =  0
+   AF =  1
+   FC =  0.5
+   TNOM =  27
)

.MODEL KC215 D (
+   IS =  9.128e-06
+   RS =  0.05954
+   CJO =  1e-12
+   VJ =  0.75
+   TT =  5e-09
+   M =  0.3333
+   BV =  15
+   IBV =  0.2411
+   N =  1
+   EG =  1.11
+   XTI =  3
+   KF =  0
+   AF =  1
+   FC =  0.5
+   TNOM =  27
)

.MODEL KC218 D (
+   IS =  9.128e-06
+   RS =  0.05954
+   CJO =  1e-12
+   VJ =  0.75
+   TT =  5e-09
+   M =  0.3333
+   BV =  18
+   IBV =  0.2411
+   N =  1
+   EG =  1.11
+   XTI =  3
+   KF =  0
+   AF =  1
+   FC =  0.5
+   TNOM =  27
)

.MODEL KC220 D (
+   IS =  9.128e-06
+   RS =  0.05954
+   CJO =  1e-12
+   VJ =  0.75
+   TT =  5e-09
+   M =  0.3333
+   BV =  20
+   IBV =  0.2411
+   N =  1
+   EG =  1.11
+   XTI =  3
+   KF =  0
+   AF =  1
+   FC =  0.5
+   TNOM =  27
)

.MODEL KC224 D (
+   IS =  9.128e-06
+   RS =  0.05954
+   CJO =  1e-12
+   VJ =  0.75
+   TT =  5e-09
+   M =  0.3333
+   BV =  24
+   IBV =  0.2411
+   N =  1
+   EG =  1.11
+   XTI =  3
+   KF =  0
+   AF =  1
+   FC =  0.5
+   TNOM =  27
)
