
.MODEL 2P333A NJF (
+   VTO =  -1.1
+   BETA =  0.02242
+   LAMBDA =  0.003
+   RD =  1
+   RS =  1
+   IS =  2.052e-13
+   CGD =  1.076e-11
+   CGS =  9.56e-12
+   PB =  1
+   B =  1
+   KF =  4.244e-16
+   AF =  1
+   FC =  0.5
+   TNOM =  27
)

.MODEL 2P333B NJF (
+   VTO =  -1.2
+   BETA =  0.03042
+   LAMBDA =  0.003
+   RD =  1
+   RS =  1
+   IS =  2.052e-13
+   CGD =  1.076e-11
+   CGS =  9.56e-12
+   PB =  1
+   B =  1
+   KF =  4.244e-16
+   AF =  1
+   FC =  0.5
+   TNOM =  27
)

.MODEL 2P333G NJF (
+   VTO =  -0.9
+   BETA =  0.0001
+   LAMBDA =  0.003
+   RD =  1
+   RS =  1
+   IS =  2.052e-13
+   CGD =  1.076e-11
+   CGS =  9.56e-12
+   PB =  1
+   B =  1
+   KF =  4.244e-16
+   AF =  1
+   FC =  0.5
+   TNOM =  27
)

.MODEL 2P333V NJF (
+   VTO =  -0.9
+   BETA =  0.0001
+   LAMBDA =  0.003
+   RD =  1
+   RS =  1
+   IS =  2.052e-13
+   CGD =  1.076e-11
+   CGS =  9.56e-12
+   PB =  1
+   B =  1
+   KF =  4.244e-16
+   AF =  1
+   FC =  0.5
+   TNOM =  27
)

.MODEL 2P341A NJF (
+   VTO =  -0.7414
+   BETA =  0.01242
+   LAMBDA =  0.003
+   RD =  1
+   RS =  1
+   IS =  2.052e-13
+   CGD =  1.076e-11
+   CGS =  9.56e-12
+   PB =  1
+   B =  1
+   KF =  4.244e-16
+   AF =  1
+   FC =  0.5
+   TNOM =  27
)

.MODEL 2P341B NJF (
+   VTO =  -0.9414
+   BETA =  0.01842
+   LAMBDA =  0.003
+   RD =  1
+   RS =  1
+   IS =  2.052e-13
+   CGD =  1.076e-11
+   CGS =  9.56e-12
+   PB =  1
+   B =  1
+   KF =  4.244e-16
+   AF =  1
+   FC =  0.5
+   TNOM =  27
)

.MODEL 2P342A NJF (
+   VTO =  -0.6414
+   BETA =  0.02542
+   LAMBDA =  0.003
+   RD =  1
+   RS =  1
+   IS =  2.052e-13
+   CGD =  1.076e-11
+   CGS =  9.56e-12
+   PB =  1
+   B =  1
+   KF =  4.244e-16
+   AF =  1
+   FC =  0.5
+   TNOM =  27
)

.MODEL 2P364G NJF (
+   VTO =  -1.1
+   BETA =  0.01
+   LAMBDA =  0.003
+   RD =  1
+   RS =  1
+   IS =  2.052e-13
+   CGD =  1.076e-11
+   CGS =  9.56e-12
+   PB =  1
+   B =  1
+   KF =  4.244e-16
+   AF =  1
+   FC =  0.5
+   TNOM =  27
)

.MODEL 2P664B NJF (
+   VTO =  -0.6
+   BETA =  0.0001
+   LAMBDA =  0.003
+   RD =  1
+   RS =  1
+   IS =  2.052e-13
+   CGD =  1.076e-11
+   CGS =  9.56e-12
+   PB =  1
+   B =  1
+   KF =  4.244e-16
+   AF =  1
+   FC =  0.5
+   TNOM =  27
)

.MODEL J2N3821 NJF (
+   VTO =  -2
+   BETA =  0.001517
+   LAMBDA =  0.002045
+   RD =  1
+   RS =  1
+   IS =  1e-14
+   CGD =  0
+   CGS =  0
+   PB =  1
+   B =  1
+   KF =  0
+   AF =  1
+   FC =  0.5
+   TNOM =  27
)

.MODEL KP202D NJF (
+   VTO =  -1.5
+   BETA =  0.00025
+   LAMBDA =  0.006
+   RD =  10
+   RS =  10
+   IS =  1.145e-13
+   CGD =  2.8e-12
+   CGS =  2.916e-12
+   PB =  0.5
+   B =  1
+   KF =  2.59e-18
+   AF =  1
+   FC =  0.5
+   TNOM =  27
)

.MODEL KP202E NJF (
+   VTO =  -1
+   BETA =  0.0008
+   LAMBDA =  0.006
+   RD =  10
+   RS =  10
+   IS =  1.145e-13
+   CGD =  2.8e-12
+   CGS =  2.916e-12
+   PB =  0.5
+   B =  1
+   KF =  2.59e-18
+   AF =  1
+   FC =  0.5
+   TNOM =  27
)

.MODEL KP303A NJF (
+   VTO =  -2
+   BETA =  0.0005
+   LAMBDA =  0.006
+   RD =  10
+   RS =  10
+   IS =  1.145e-13
+   CGD =  2.8e-12
+   CGS =  2.916e-12
+   PB =  0.5
+   B =  1
+   KF =  2.59e-18
+   AF =  1
+   FC =  0.5
+   TNOM =  27
)

.MODEL KP303B NJF (
+   VTO =  -2.5
+   BETA =  0.0003
+   LAMBDA =  0.006
+   RD =  10
+   RS =  10
+   IS =  1.145e-13
+   CGD =  2.8e-12
+   CGS =  2.916e-12
+   PB =  0.5
+   B =  1
+   KF =  2.59e-18
+   AF =  1
+   FC =  0.5
+   TNOM =  27
)

.MODEL KP303I NJF (
+   VTO =  -1.5
+   BETA =  0.0013
+   LAMBDA =  0.006
+   RD =  10
+   RS =  10
+   IS =  1.145e-13
+   CGD =  2.8e-12
+   CGS =  2.916e-12
+   PB =  0.5
+   B =  1
+   KF =  2.59e-18
+   AF =  1
+   FC =  0.5
+   TNOM =  27
)

.MODEL KP303Z NJF (
+   VTO =  -3
+   BETA =  0.00017
+   LAMBDA =  0.006
+   RD =  10
+   RS =  10
+   IS =  1.145e-13
+   CGD =  2.8e-12
+   CGS =  2.916e-12
+   PB =  0.5
+   B =  1
+   KF =  2.59e-18
+   AF =  1
+   FC =  0.5
+   TNOM =  27
)

.MODEL KP307A NJF (
+   VTO =  -2.75
+   BETA =  0.00065
+   LAMBDA =  0.006
+   RD =  10
+   RS =  10
+   IS =  1.145e-13
+   CGD =  2.8e-12
+   CGS =  2.916e-12
+   PB =  0.5
+   B =  1
+   KF =  2.59e-18
+   AF =  1
+   FC =  0.5
+   TNOM =  27
)

.MODEL KP307B NJF (
+   VTO =  -3
+   BETA =  0.0008
+   LAMBDA =  0.006
+   RD =  10
+   RS =  10
+   IS =  1.145e-13
+   CGD =  2.8e-12
+   CGS =  2.916e-12
+   PB =  0.5
+   B =  1
+   KF =  2.59e-18
+   AF =  1
+   FC =  0.5
+   TNOM =  27
)

.MODEL KP307E NJF (
+   VTO =  -2.25
+   BETA =  0.001
+   LAMBDA =  0.006
+   RD =  10
+   RS =  10
+   IS =  1.145e-13
+   CGD =  2.8e-12
+   CGS =  2.916e-12
+   PB =  0.5
+   B =  1
+   KF =  2.59e-18
+   AF =  1
+   FC =  0.5
+   TNOM =  27
)

.MODEL KP308A NJF (
+   VTO =  -0.5
+   BETA =  0.004
+   LAMBDA =  0.006
+   RD =  10
+   RS =  10
+   IS =  1.145e-13
+   CGD =  2.8e-12
+   CGS =  2.916e-12
+   PB =  0.5
+   B =  1
+   KF =  2.59e-18
+   AF =  1
+   FC =  0.5
+   TNOM =  27
)

.MODEL KP308B NJF (
+   VTO =  -0.6
+   BETA =  0.0044
+   LAMBDA =  0.006
+   RD =  10
+   RS =  10
+   IS =  1.145e-13
+   CGD =  2.8e-12
+   CGS =  2.916e-12
+   PB =  0.5
+   B =  1
+   KF =  2.59e-18
+   AF =  1
+   FC =  0.5
+   TNOM =  27
)

.MODEL KP308D NJF (
+   VTO =  -1.5
+   BETA =  0.00083
+   LAMBDA =  0.006
+   RD =  10
+   RS =  10
+   IS =  1.145e-13
+   CGD =  2.8e-12
+   CGS =  2.916e-12
+   PB =  0.5
+   B =  1
+   KF =  2.59e-18
+   AF =  1
+   FC =  0.5
+   TNOM =  27
)

.MODEL KP308V NJF (
+   VTO =  -1.5
+   BETA =  0.00065
+   LAMBDA =  0.006
+   RD =  10
+   RS =  10
+   IS =  1.145e-13
+   CGD =  2.8e-12
+   CGS =  2.916e-12
+   PB =  0.5
+   B =  1
+   KF =  2.59e-18
+   AF =  1
+   FC =  0.5
+   TNOM =  27
)

.MODEL KP312A NJF (
+   VTO =  -2.5
+   BETA =  0.0005
+   LAMBDA =  0.003
+   RD =  1
+   RS =  1
+   IS =  2.052e-13
+   CGD =  1.076e-11
+   CGS =  9.56e-12
+   PB =  1
+   B =  1
+   KF =  4.244e-16
+   AF =  1
+   FC =  0.5
+   TNOM =  27
)

.MODEL KP312B NJF (
+   VTO =  -1.9
+   BETA =  0.0003
+   LAMBDA =  0.003
+   RD =  1
+   RS =  1
+   IS =  2.052e-13
+   CGD =  1.076e-11
+   CGS =  9.56e-12
+   PB =  1
+   B =  1
+   KF =  4.244e-16
+   AF =  1
+   FC =  0.5
+   TNOM =  27
)

.MODEL KP312G NJF (
+   VTO =  -2.5
+   BETA =  0.0002
+   LAMBDA =  0.003
+   RD =  1
+   RS =  1
+   IS =  2.052e-13
+   CGD =  1.076e-11
+   CGS =  9.56e-12
+   PB =  1
+   B =  1
+   KF =  4.244e-16
+   AF =  1
+   FC =  0.5
+   TNOM =  27
)

.MODEL KP312V NJF (
+   VTO =  -1.5
+   BETA =  0.0006
+   LAMBDA =  0.003
+   RD =  1
+   RS =  1
+   IS =  2.052e-13
+   CGD =  1.076e-11
+   CGS =  9.56e-12
+   PB =  1
+   B =  1
+   KF =  4.244e-16
+   AF =  1
+   FC =  0.5
+   TNOM =  27
)

.MODEL KP364A NJF (
+   VTO =  -0.5414
+   BETA =  0.01042
+   LAMBDA =  0.003
+   RD =  1
+   RS =  1
+   IS =  2.052e-13
+   CGD =  1.076e-11
+   CGS =  9.56e-12
+   PB =  1
+   B =  1
+   KF =  4.244e-16
+   AF =  1
+   FC =  0.5
+   TNOM =  27
)

.MODEL KP364B NJF (
+   VTO =  -1
+   BETA =  0.00842
+   LAMBDA =  0.003
+   RD =  1
+   RS =  1
+   IS =  2.052e-13
+   CGD =  1.076e-11
+   CGS =  9.56e-12
+   PB =  1
+   B =  1
+   KF =  4.244e-16
+   AF =  1
+   FC =  0.5
+   TNOM =  27
)

.MODEL KP364V NJF (
+   VTO =  -1
+   BETA =  0.00542
+   LAMBDA =  0.003
+   RD =  1
+   RS =  1
+   IS =  2.052e-13
+   CGD =  1.076e-11
+   CGS =  9.56e-12
+   PB =  1
+   B =  1
+   KF =  4.244e-16
+   AF =  1
+   FC =  0.5
+   TNOM =  27
)

.MODEL NF5101 NJF (
+   VTO =  -0.7414
+   BETA =  0.01242
+   LAMBDA =  0.003
+   RD =  1
+   RS =  1
+   IS =  2.052e-13
+   CGD =  1.076e-11
+   CGS =  9.56e-12
+   PB =  1
+   B =  1
+   KF =  4.244e-16
+   AF =  1
+   FC =  0.5
+   TNOM =  27
)

.MODEL NF5102 NJF (
+   VTO =  -1.001
+   BETA =  0.01428
+   LAMBDA =  0.008
+   RD =  1
+   RS =  1
+   IS =  2.052e-13
+   CGD =  1.076e-11
+   CGS =  9.56e-12
+   PB =  1
+   B =  1
+   KF =  4.931e-16
+   AF =  1
+   FC =  0.5
+   TNOM =  27
)

.MODEL NPD5564 NJF (
+   VTO =  -1.447
+   BETA =  0.009109
+   LAMBDA =  0.0075
+   RD =  1
+   RS =  1
+   IS =  9.442e-14
+   CGD =  8.67e-12
+   CGS =  9.76e-12
+   PB =  1
+   B =  1
+   KF =  6.786e-17
+   AF =  1
+   FC =  0.5
+   TNOM =  27
)

.MODEL U257 NJF (
+   VTO =  -2.475
+   BETA =  0.002203
+   LAMBDA =  0.012
+   RD =  1
+   RS =  1
+   IS =  9.435e-14
+   CGD =  2.822e-12
+   CGS =  3.65e-12
+   PB =  1
+   B =  1
+   KF =  8.6e-17
+   AF =  1
+   FC =  0.5
+   TNOM =  27
)

.MODEL U308 NJF (
+   VTO =  -2.852
+   BETA =  0.004337
+   LAMBDA =  0.016
+   RD =  1
+   RS =  1
+   IS =  1.939e-13
+   CGD =  5e-12
+   CGS =  5e-12
+   PB =  1
+   B =  1
+   KF =  5.94e-17
+   AF =  1
+   FC =  0.5
+   TNOM =  27
)

.MODEL U309 NJF (
+   VTO =  -2.026
+   BETA =  0.00504
+   LAMBDA =  0.014
+   RD =  1
+   RS =  1
+   IS =  1.939e-13
+   CGD =  5e-12
+   CGS =  5e-12
+   PB =  1
+   B =  1
+   KF =  6.901e-17
+   AF =  1
+   FC =  0.5
+   TNOM =  27
)

.MODEL KP308G NJF (
+   VTO =  -0.6
+   BETA =  0.003
+   LAMBDA =  0.006
+   RD =  10
+   RS =  10
+   IS =  1.145e-13
+   CGD =  2.8e-12
+   CGS =  2.916e-12
+   PB =  0.5
+   B =  1
+   KF =  2.59e-18
+   AF =  1
+   FC =  0.5
+   TNOM =  27
)
