
.MODEL ideal PJF (
+   VTO =  -1.4
+   BETA =  0.00138
+   LAMBDA =  0
+   RD =  0
+   RS =  0
+   IS =  1e-14
+   CGD =  0
+   CGS =  0
+   PB =  1
+   B =  1
+   KF =  0
+   AF =  1
+   FC =  0.5
+   TNOM =  27
)
