
.MODEL nMOS20 PMOS (
+   VTO =  -2.6
+   KP =  0.003
+   LAMBDA =  0
+   PHI =  0.6
+   GAMMA =  0
+   RD =  15
+   RS =  15
+   IS =  1e-15
+   CGBO =  0
+   CGDO =  0
+   CGSO =  2.8e-11
+   CBD =  3.5e-11
+   CBS =  0
+   PB =  0.8
+   RSH =  0
+   CJ =  0
+   MJ =  0.5
+   CJSW =  0
+   MJSW =  0.5
+   JS =  0
+   TOX =  1e-07
+   NSUB =  1e+15
+   NSS =  0
+   TPG =  1
+   LD =  0
+   U0 =  600
+   KF =  0
+   AF =  1
+   FC =  0.5
+   TNOM =  27
)

.MODEL pMOS01 PMOS (
+   VTO =  -1.2
+   KP =  0.002
+   LAMBDA =  0
+   PHI =  0.6
+   GAMMA =  0
+   RD =  15
+   RS =  15
+   IS =  1e-15
+   CGBO =  0
+   CGDO =  0
+   CGSO =  2.8e-11
+   CBD =  3.5e-11
+   CBS =  0
+   PB =  0.8
+   RSH =  0
+   CJ =  0
+   MJ =  0.5
+   CJSW =  0
+   MJSW =  0.5
+   JS =  0
+   TOX =  1e-07
+   NSUB =  1e+15
+   NSS =  0
+   TPG =  1
+   LD =  0
+   U0 =  600
+   KF =  0
+   AF =  1
+   FC =  0.5
+   TNOM =  27
)

.MODEL pMOS02 PMOS (
+   VTO =  -1.2
+   KP =  0.0028
+   LAMBDA =  0
+   PHI =  0.6
+   GAMMA =  0
+   RD =  25
+   RS =  25
+   IS =  1e-15
+   CGBO =  0
+   CGDO =  0
+   CGSO =  3.8e-11
+   CBD =  4.5e-11
+   CBS =  0
+   PB =  0.8
+   RSH =  0
+   CJ =  0
+   MJ =  0.5
+   CJSW =  0
+   MJSW =  0.5
+   JS =  0
+   TOX =  1e-07
+   NSUB =  1e+15
+   NSS =  0
+   TPG =  1
+   LD =  0
+   U0 =  600
+   KF =  0
+   AF =  1
+   FC =  0.5
+   TNOM =  27
)

.MODEL pMOS03 PMOS (
+   VTO =  -1.5
+   KP =  0.0036
+   LAMBDA =  0
+   PHI =  0.6
+   GAMMA =  0
+   RD =  10
+   RS =  10
+   IS =  1e-15
+   CGBO =  0
+   CGDO =  0
+   CGSO =  4.8e-11
+   CBD =  5.5e-11
+   CBS =  0
+   PB =  0.8
+   RSH =  0
+   CJ =  0
+   MJ =  0.5
+   CJSW =  0
+   MJSW =  0.5
+   JS =  0
+   TOX =  1e-07
+   NSUB =  1e+15
+   NSS =  0
+   TPG =  1
+   LD =  0
+   U0 =  600
+   KF =  0
+   AF =  1
+   FC =  0.5
+   TNOM =  27
)

.MODEL pMOS04 PMOS (
+   VTO =  -1.8
+   KP =  0.0042
+   LAMBDA =  0
+   PHI =  0.6
+   GAMMA =  0
+   RD =  30
+   RS =  30
+   IS =  1e-15
+   CGBO =  0
+   CGDO =  0
+   CGSO =  4e-11
+   CBD =  6e-11
+   CBS =  0
+   PB =  0.8
+   RSH =  0
+   CJ =  0
+   MJ =  0.5
+   CJSW =  0
+   MJSW =  0.5
+   JS =  0
+   TOX =  1e-07
+   NSUB =  1e+15
+   NSS =  0
+   TPG =  1
+   LD =  0
+   U0 =  600
+   KF =  0
+   AF =  1
+   FC =  0.5
+   TNOM =  27
)

.MODEL pMOS05 PMOS (
+   VTO =  -2
+   KP =  0.0015
+   LAMBDA =  0
+   PHI =  0.6
+   GAMMA =  0
+   RD =  25
+   RS =  25
+   IS =  1e-15
+   CGBO =  0
+   CGDO =  0
+   CGSO =  6e-11
+   CBD =  6e-11
+   CBS =  0
+   PB =  0.8
+   RSH =  0
+   CJ =  0
+   MJ =  0.5
+   CJSW =  0
+   MJSW =  0.5
+   JS =  0
+   TOX =  1e-07
+   NSUB =  1e+15
+   NSS =  0
+   TPG =  1
+   LD =  0
+   U0 =  600
+   KF =  0
+   AF =  1
+   FC =  0.5
+   TNOM =  27
)

.MODEL pMOS06 PMOS (
+   VTO =  -2.2
+   KP =  0.0042
+   LAMBDA =  0
+   PHI =  0.6
+   GAMMA =  0
+   RD =  15
+   RS =  15
+   IS =  1e-15
+   CGBO =  0
+   CGDO =  0
+   CGSO =  4e-11
+   CBD =  4e-11
+   CBS =  0
+   PB =  0.8
+   RSH =  0
+   CJ =  0
+   MJ =  0.5
+   CJSW =  0
+   MJSW =  0.5
+   JS =  0
+   TOX =  1e-07
+   NSUB =  1e+15
+   NSS =  0
+   TPG =  1
+   LD =  0
+   U0 =  600
+   KF =  0
+   AF =  1
+   FC =  0.5
+   TNOM =  27
)

.MODEL pMOS07 PMOS (
+   VTO =  -2.4
+   KP =  0.002
+   LAMBDA =  0
+   PHI =  0.6
+   GAMMA =  0
+   RD =  30
+   RS =  30
+   IS =  1e-15
+   CGBO =  0
+   CGDO =  0
+   CGSO =  3e-11
+   CBD =  3.5e-11
+   CBS =  0
+   PB =  0.8
+   RSH =  0
+   CJ =  0
+   MJ =  0.5
+   CJSW =  0
+   MJSW =  0.5
+   JS =  0
+   TOX =  1e-07
+   NSUB =  1e+15
+   NSS =  0
+   TPG =  1
+   LD =  0
+   U0 =  600
+   KF =  0
+   AF =  1
+   FC =  0.5
+   TNOM =  27
)

.MODEL pMOS08 PMOS (
+   VTO =  -2.6
+   KP =  0.003
+   LAMBDA =  0
+   PHI =  0.6
+   GAMMA =  0
+   RD =  25
+   RS =  25
+   IS =  1e-15
+   CGBO =  0
+   CGDO =  0
+   CGSO =  5e-11
+   CBD =  5e-11
+   CBS =  0
+   PB =  0.8
+   RSH =  0
+   CJ =  0
+   MJ =  0.5
+   CJSW =  0
+   MJSW =  0.5
+   JS =  0
+   TOX =  1e-07
+   NSUB =  1e+15
+   NSS =  0
+   TPG =  1
+   LD =  0
+   U0 =  600
+   KF =  0
+   AF =  1
+   FC =  0.5
+   TNOM =  27
)

.MODEL pMOS09 PMOS (
+   VTO =  -1
+   KP =  0.004
+   LAMBDA =  0
+   PHI =  0.6
+   GAMMA =  0
+   RD =  15
+   RS =  15
+   IS =  1e-15
+   CGBO =  0
+   CGDO =  0
+   CGSO =  6e-11
+   CBD =  6e-11
+   CBS =  0
+   PB =  0.8
+   RSH =  0
+   CJ =  0
+   MJ =  0.5
+   CJSW =  0
+   MJSW =  0.5
+   JS =  0
+   TOX =  1e-07
+   NSUB =  1e+15
+   NSS =  0
+   TPG =  1
+   LD =  0
+   U0 =  600
+   KF =  0
+   AF =  1
+   FC =  0.5
+   TNOM =  27
)

.MODEL pMOS10 PMOS (
+   VTO =  -1.2
+   KP =  0.0015
+   LAMBDA =  0
+   PHI =  0.6
+   GAMMA =  0
+   RD =  20
+   RS =  20
+   IS =  1e-15
+   CGBO =  0
+   CGDO =  0
+   CGSO =  2.8e-11
+   CBD =  2.5e-11
+   CBS =  0
+   PB =  0.8
+   RSH =  0
+   CJ =  0
+   MJ =  0.5
+   CJSW =  0
+   MJSW =  0.5
+   JS =  0
+   TOX =  1e-07
+   NSUB =  1e+15
+   NSS =  0
+   TPG =  1
+   LD =  0
+   U0 =  600
+   KF =  0
+   AF =  1
+   FC =  0.5
+   TNOM =  27
)

.MODEL pMOS11 PMOS (
+   VTO =  -1.5
+   KP =  0.001
+   LAMBDA =  0
+   PHI =  0.6
+   GAMMA =  0
+   RD =  30
+   RS =  30
+   IS =  1e-15
+   CGBO =  0
+   CGDO =  0
+   CGSO =  4e-11
+   CBD =  4e-11
+   CBS =  0
+   PB =  0.8
+   RSH =  0
+   CJ =  0
+   MJ =  0.5
+   CJSW =  0
+   MJSW =  0.5
+   JS =  0
+   TOX =  1e-07
+   NSUB =  1e+15
+   NSS =  0
+   TPG =  1
+   LD =  0
+   U0 =  600
+   KF =  0
+   AF =  1
+   FC =  0.5
+   TNOM =  27
)

.MODEL pMOS12 PMOS (
+   VTO =  -1.8
+   KP =  0.002
+   LAMBDA =  0
+   PHI =  0.6
+   GAMMA =  0
+   RD =  20
+   RS =  20
+   IS =  1e-15
+   CGBO =  0
+   CGDO =  0
+   CGSO =  4.5e-11
+   CBD =  4.5e-11
+   CBS =  0
+   PB =  0.8
+   RSH =  0
+   CJ =  0
+   MJ =  0.5
+   CJSW =  0
+   MJSW =  0.5
+   JS =  0
+   TOX =  1e-07
+   NSUB =  1e+15
+   NSS =  0
+   TPG =  1
+   LD =  0
+   U0 =  600
+   KF =  0
+   AF =  1
+   FC =  0.5
+   TNOM =  27
)

.MODEL pMOS13 PMOS (
+   VTO =  -2
+   KP =  0.004
+   LAMBDA =  0
+   PHI =  0.6
+   GAMMA =  0
+   RD =  20
+   RS =  20
+   IS =  1e-15
+   CGBO =  0
+   CGDO =  0
+   CGSO =  4.5e-11
+   CBD =  4.5e-11
+   CBS =  0
+   PB =  0.8
+   RSH =  0
+   CJ =  0
+   MJ =  0.5
+   CJSW =  0
+   MJSW =  0.5
+   JS =  0
+   TOX =  1e-07
+   NSUB =  1e+15
+   NSS =  0
+   TPG =  1
+   LD =  0
+   U0 =  600
+   KF =  0
+   AF =  1
+   FC =  0.5
+   TNOM =  27
)

.MODEL pMOS14 PMOS (
+   VTO =  -2.2
+   KP =  0.0025
+   LAMBDA =  0
+   PHI =  0.6
+   GAMMA =  0
+   RD =  25
+   RS =  25
+   IS =  1e-15
+   CGBO =  0
+   CGDO =  0
+   CGSO =  2.5e-11
+   CBD =  2e-11
+   CBS =  0
+   PB =  0.8
+   RSH =  0
+   CJ =  0
+   MJ =  0.5
+   CJSW =  0
+   MJSW =  0.5
+   JS =  0
+   TOX =  1e-07
+   NSUB =  1e+15
+   NSS =  0
+   TPG =  1
+   LD =  0
+   U0 =  600
+   KF =  0
+   AF =  1
+   FC =  0.5
+   TNOM =  27
)

.MODEL pMOS15 PMOS (
+   VTO =  -2.4
+   KP =  0.0015
+   LAMBDA =  0
+   PHI =  0.6
+   GAMMA =  0
+   RD =  15
+   RS =  15
+   IS =  1e-15
+   CGBO =  0
+   CGDO =  0
+   CGSO =  2.8e-11
+   CBD =  3.5e-11
+   CBS =  0
+   PB =  0.8
+   RSH =  0
+   CJ =  0
+   MJ =  0.5
+   CJSW =  0
+   MJSW =  0.5
+   JS =  0
+   TOX =  1e-07
+   NSUB =  1e+15
+   NSS =  0
+   TPG =  1
+   LD =  0
+   U0 =  600
+   KF =  0
+   AF =  1
+   FC =  0.5
+   TNOM =  27
)

.MODEL pMOS16 PMOS (
+   VTO =  -2.6
+   KP =  0.001
+   LAMBDA =  0
+   PHI =  0.6
+   GAMMA =  0
+   RD =  15
+   RS =  15
+   IS =  1e-15
+   CGBO =  0
+   CGDO =  0
+   CGSO =  3.2e-11
+   CBD =  3.5e-11
+   CBS =  0
+   PB =  0.8
+   RSH =  0
+   CJ =  0
+   MJ =  0.5
+   CJSW =  0
+   MJSW =  0.5
+   JS =  0
+   TOX =  1e-07
+   NSUB =  1e+15
+   NSS =  0
+   TPG =  1
+   LD =  0
+   U0 =  600
+   KF =  0
+   AF =  1
+   FC =  0.5
+   TNOM =  27
)

.MODEL pMOS17 PMOS (
+   VTO =  -2
+   KP =  0.0035
+   LAMBDA =  0
+   PHI =  0.6
+   GAMMA =  0
+   RD =  20
+   RS =  20
+   IS =  1e-15
+   CGBO =  0
+   CGDO =  0
+   CGSO =  4.5e-11
+   CBD =  4.5e-11
+   CBS =  0
+   PB =  0.8
+   RSH =  0
+   CJ =  0
+   MJ =  0.5
+   CJSW =  0
+   MJSW =  0.5
+   JS =  0
+   TOX =  1e-07
+   NSUB =  1e+15
+   NSS =  0
+   TPG =  1
+   LD =  0
+   U0 =  600
+   KF =  0
+   AF =  1
+   FC =  0.5
+   TNOM =  27
)

.MODEL pMOS18 PMOS (
+   VTO =  -2.2
+   KP =  0.004
+   LAMBDA =  0
+   PHI =  0.6
+   GAMMA =  0
+   RD =  25
+   RS =  25
+   IS =  1e-15
+   CGBO =  0
+   CGDO =  0
+   CGSO =  3.5e-11
+   CBD =  2e-11
+   CBS =  0
+   PB =  0.8
+   RSH =  0
+   CJ =  0
+   MJ =  0.5
+   CJSW =  0
+   MJSW =  0.5
+   JS =  0
+   TOX =  1e-07
+   NSUB =  1e+15
+   NSS =  0
+   TPG =  1
+   LD =  0
+   U0 =  600
+   KF =  0
+   AF =  1
+   FC =  0.5
+   TNOM =  27
)

.MODEL pMOS19 PMOS (
+   VTO =  -2.4
+   KP =  0.0025
+   LAMBDA =  0
+   PHI =  0.6
+   GAMMA =  0
+   RD =  15
+   RS =  15
+   IS =  1e-15
+   CGBO =  0
+   CGDO =  0
+   CGSO =  6e-11
+   CBD =  3.5e-11
+   CBS =  0
+   PB =  0.8
+   RSH =  0
+   CJ =  0
+   MJ =  0.5
+   CJSW =  0
+   MJSW =  0.5
+   JS =  0
+   TOX =  1e-07
+   NSUB =  1e+15
+   NSS =  0
+   TPG =  1
+   LD =  0
+   U0 =  600
+   KF =  0
+   AF =  1
+   FC =  0.5
+   TNOM =  27
)
