
.MODEL D7B D (
+   IS =  9e-05
+   RS =  3.6
+   CJO =  3.2e-12
+   VJ =  0.4
+   TT =  5.3e-09
+   M =  0.5
+   BV =  95
+   N =  2
+   EG =  0.66
+   XTI =  3
+   KF =  0
+   AF =  1
+   FC =  0.5
+   IBV =  0.01
+   TNOM =  27
)

.MODEL D7V D (
+   IS =  8e-05
+   RS =  5.2
+   CJO =  5.2e-12
+   VJ =  0.4
+   TT =  3.3e-09
+   M =  0.5
+   BV =  80
+   N =  2.1
+   EG =  0.66
+   XTI =  3
+   KF =  0
+   AF =  1
+   FC =  0.5
+   IBV =  0.01
+   TNOM =  27
)

.MODEL D9B D (
+   IS =  1e-05
+   RS =  7
+   CJO =  4.2e-12
+   VJ =  0.4
+   TT =  6.3e-09
+   M =  0.5
+   BV =  25
+   N =  1.8
+   EG =  0.66
+   XTI =  3
+   KF =  0
+   AF =  1
+   FC =  0.5
+   IBV =  0.01
+   TNOM =  27
)

.MODEL D9V D (
+   IS =  7e-06
+   RS =  10
+   CJO =  3e-12
+   VJ =  0.4
+   TT =  3.3e-09
+   M =  0.5
+   BV =  30
+   N =  2
+   EG =  0.66
+   XTI =  3
+   KF =  0
+   AF =  1
+   FC =  0.5
+   IBV =  0.01
+   TNOM =  27
)

.MODEL D11 D (
+   IS =  8e-06
+   RS =  9
+   CJO =  2.1e-12
+   VJ =  0.4
+   TT =  6.5e-09
+   M =  0.5
+   BV =  30
+   N =  1.6
+   EG =  0.66
+   XTI =  3
+   KF =  0
+   AF =  1
+   FC =  0.5
+   IBV =  0.01
+   TNOM =  27
)

.MODEL D12A D (
+   IS =  6e-07
+   RS =  8
+   CJO =  3.2e-12
+   VJ =  0.4
+   TT =  1.5e-08
+   M =  0.5
+   BV =  25
+   N =  1.2
+   EG =  0.66
+   XTI =  3
+   KF =  0
+   AF =  1
+   FC =  0.5
+   IBV =  0.01
+   TNOM =  27
)

.MODEL D14 D (
+   IS =  9e-06
+   RS =  15
+   CJO =  2.8e-12
+   VJ =  0.4
+   TT =  4e-09
+   M =  0.5
+   BV =  90
+   N =  1.6
+   EG =  0.66
+   XTI =  3
+   KF =  0
+   AF =  1
+   FC =  0.5
+   IBV =  0.01
+   TNOM =  27
)

.MODEL D18 D (
+   IS =  2e-06
+   RS =  12
+   CJO =  4.3e-12
+   VJ =  0.4
+   TT =  6.6e-09
+   M =  0.5
+   BV =  20
+   N =  1.8
+   EG =  0.66
+   XTI =  3
+   KF =  0
+   AF =  1
+   FC =  0.5
+   IBV =  0.01
+   TNOM =  27
)

.MODEL D310 D (
+   IS =  8e-05
+   RS =  7
+   CJO =  1e-11
+   VJ =  0.4
+   TT =  3.3e-09
+   M =  0.5
+   BV =  25
+   N =  1.9
+   EG =  0.66
+   XTI =  3
+   KF =  0
+   AF =  1
+   FC =  0.5
+   IBV =  0.01
+   TNOM =  27
)

.MODEL D311A D (
+   IS =  4e-05
+   RS =  4
+   CJO =  2.5e-11
+   VJ =  0.4
+   TT =  2e-09
+   M =  0.5
+   BV =  30
+   N =  2
+   EG =  0.66
+   XTI =  3
+   KF =  0
+   AF =  1
+   FC =  0.5
+   IBV =  0.01
+   TNOM =  27
)

.MODEL D312B D (
+   IS =  7e-06
+   RS =  8
+   CJO =  1.5e-11
+   VJ =  0.4
+   TT =  4e-09
+   M =  0.5
+   BV =  50
+   N =  1.6
+   EG =  0.66
+   XTI =  3
+   KF =  0
+   AF =  1
+   FC =  0.5
+   IBV =  0.01
+   TNOM =  27
)

.MODEL DS D (
+   IS =  3e-08
+   RS =  8
+   CJO =  3.2e-12
+   VJ =  0.35
+   TT =  1.5e-08
+   M =  0.5
+   BV =  50
+   N =  1.2
+   EG =  0.66
+   XTI =  3
+   KF =  0
+   AF =  1
+   FC =  0.5
+   IBV =  0.01
+   TNOM =  27
)

.MODEL GD107A D (
+   IS =  2e-05
+   RS =  15
+   CJO =  2.2e-12
+   VJ =  0.4
+   TT =  8e-09
+   M =  0.5
+   BV =  15
+   N =  1.8
+   EG =  0.66
+   XTI =  3
+   KF =  0
+   AF =  1
+   FC =  0.5
+   IBV =  0.01
+   TNOM =  27
)

.MODEL GD402A D (
+   IS =  6e-06
+   RS =  12
+   CJO =  4.2e-12
+   VJ =  0.4
+   TT =  5e-09
+   M =  0.5
+   BV =  20
+   N =  1.9
+   EG =  0.66
+   XTI =  3
+   KF =  0
+   AF =  1
+   FC =  0.5
+   IBV =  0.001
+   TNOM =  27
)

.MODEL D219A D (
+   IS =  2e-10
+   RS =  5.5
+   CJO =  5e-11
+   VJ =  0.75
+   TT =  2.2e-09
+   M =  0.33
+   BV =  70
+   N =  1.35
+   EG =  1.11
+   XTI =  3
+   KF =  0
+   AF =  1
+   FC =  0.5
+   IBV =  0.01
+   TNOM =  27
)

.MODEL D220A D (
+   IS =  4e-10
+   RS =  9.5
+   CJO =  6e-11
+   VJ =  0.75
+   TT =  3.3e-09
+   M =  0.21
+   BV =  75
+   N =  1.35
+   EG =  1.11
+   XTI =  3
+   KF =  0
+   AF =  1
+   FC =  0.5
+   IBV =  0.01
+   TNOM =  27
)

.MODEL D226 D (
+   IS =  1e-10
+   RS =  2
+   CJO =  4e-11
+   VJ =  0.75
+   TT =  5e-09
+   M =  0.5
+   BV =  80
+   N =  1.2
+   EG =  1.11
+   XTI =  3
+   KF =  0
+   AF =  1
+   FC =  0.5
+   IBV =  0.01
+   TNOM =  27
)

.MODEL D226B D (
+   IS =  2e-10
+   RS =  3
+   CJO =  3e-11
+   VJ =  0.75
+   TT =  2e-09
+   M =  0.28
+   BV =  95
+   N =  1.3
+   EG =  1.11
+   XTI =  3
+   KF =  0
+   AF =  1
+   FC =  0.5
+   IBV =  0.01
+   TNOM =  27
)

.MODEL D226E D (
+   IS =  1e-09
+   RS =  4
+   CJO =  4.5e-11
+   VJ =  0.75
+   TT =  4e-09
+   M =  0.33
+   BV =  65
+   N =  1.52
+   EG =  1.11
+   XTI =  3
+   KF =  0
+   AF =  1
+   FC =  0.5
+   IBV =  0.01
+   TNOM =  27
)

.MODEL D226V D (
+   IS =  1e-09
+   RS =  5
+   CJO =  5.5e-11
+   VJ =  0.75
+   TT =  2.2e-09
+   M =  0.3
+   BV =  75
+   N =  1.45
+   EG =  1.11
+   XTI =  3
+   KF =  0
+   AF =  1
+   FC =  0.5
+   IBV =  0.01
+   TNOM =  27
)

.MODEL D237B D (
+   IS =  5e-10
+   RS =  6
+   CJO =  3.5e-11
+   VJ =  0.75
+   TT =  2.2e-09
+   M =  0.3
+   BV =  85
+   N =  1.3
+   EG =  1.11
+   XTI =  3
+   KF =  0
+   AF =  1
+   FC =  0.5
+   IBV =  0.01
+   TNOM =  27
)

.MODEL D237G D (
+   IS =  2e-10
+   RS =  3
+   CJO =  1.5e-11
+   VJ =  0.75
+   TT =  5e-09
+   M =  0.33
+   BV =  70
+   N =  1.3
+   EG =  1.11
+   XTI =  3
+   KF =  0
+   AF =  1
+   FC =  0.5
+   IBV =  0.01
+   TNOM =  27
)

.MODEL KD102B D (
+   IS =  2e-12
+   RS =  8
+   CJO =  12e-12
+   VJ =  0.75
+   TT =  6e-09
+   M =  0.33
+   BV =  90
+   N =  1.05
+   EG =  1.11
+   XTI =  3
+   KF =  0
+   AF =  1
+   FC =  0.5
+   IBV =  0.01
+   TNOM =  27
)

.MODEL KD103B D (
+   IS =  5e-10
+   RS =  5
+   CJO =  1e-11
+   VJ =  0.75
+   TT =  4e-09
+   M =  0.26
+   BV =  50
+   N =  1.5
+   EG =  1.11
+   XTI =  3
+   KF =  0
+   AF =  1
+   FC =  0.5
+   IBV =  0.01
+   TNOM =  27
)

.MODEL KD105B D (
+   IS =  2e-10
+   RS =  3
+   CJO =  5e-11
+   VJ =  0.75
+   TT =  1e-08
+   M =  0.33
+   BV =  85
+   N =  1.6
+   EG =  1.11
+   XTI =  3
+   KF =  0
+   AF =  1
+   FC =  0.5
+   IBV =  0.01
+   TNOM =  27
)

.MODEL KD105V D (
+   IS =  6e-10
+   RS =  5
+   CJO =  4e-11
+   VJ =  0.75
+   TT =  9e-09
+   M =  0.25
+   BV =  75
+   N =  1.7
+   EG =  1.11
+   XTI =  3
+   KF =  0
+   AF =  1
+   FC =  0.5
+   IBV =  0.01
+   TNOM =  27
)

.MODEL KD209B D (
+   IS =  1e-09
+   RS =  6
+   CJO =  1.5e-11
+   VJ =  0.75
+   TT =  8e-07
+   M =  0.33
+   BV =  90
+   N =  1.4
+   EG =  1.11
+   XTI =  3
+   KF =  0
+   AF =  1
+   FC =  0.5
+   IBV =  0.01
+   TNOM =  27
)

.MODEL KD410 D (
+   IS =  2e-10
+   RS =  7
+   CJO =  8e-12
+   VJ =  0.75
+   TT =  1.2e-08
+   M =  0.3
+   BV =  70
+   N =  1.5
+   EG =  1.11
+   XTI =  3
+   KF =  0
+   AF =  1
+   FC =  0.5
+   IBV =  0.01
+   TNOM =  27
)

.MODEL KD503B D (
+   IS =  2e-10
+   RS =  12
+   CJO =  2.2e-12
+   VJ =  0.75
+   TT =  3e-09
+   M =  0.28
+   BV =  60
+   N =  1.5
+   EG =  1.11
+   XTI =  3
+   KF =  0
+   AF =  1
+   FC =  0.5
+   IBV =  0.01
+   TNOM =  27
)

.MODEL KD509A D (
+   IS =  5e-10
+   RS =  4
+   CJO =  3.2e-12
+   VJ =  0.75
+   TT =  4.2e-09
+   M =  0.33
+   BV =  80
+   N =  1.3
+   EG =  1.11
+   XTI =  3
+   KF =  0
+   AF =  1
+   FC =  0.5
+   IBV =  0.01
+   TNOM =  27
)

.MODEL KD512A D (
+   IS =  1e-10
+   RS =  14
+   CJO =  8e-12
+   VJ =  0.75
+   TT =  1e-09
+   M =  0.3
+   BV =  20
+   N =  1.55
+   EG =  1.11
+   XTI =  3
+   KF =  0
+   AF =  1
+   FC =  0.5
+   IBV =  0.01
+   TNOM =  27
)

.MODEL KD520A D (
+   IS =  2e-10
+   RS =  10
+   CJO =  3e-12
+   VJ =  0.75
+   TT =  1.2e-09
+   M =  0.27
+   BV =  55
+   N =  1.2
+   EG =  1.11
+   XTI =  3
+   KF =  0
+   AF =  1
+   FC =  0.5
+   IBV =  0.01
+   TNOM =  27
)

.MODEL KD521A D (
+   IS =  2e-10
+   RS =  6
+   CJO =  5e-12
+   VJ =  0.75
+   TT =  3e-09
+   M =  0.5
+   BV =  75
+   N =  1.45
+   EG =  1.11
+   XTI =  3
+   KF =  0
+   AF =  1
+   FC =  0.5
+   IBV =  0.01
+   TNOM =  27
)

.MODEL KD521V D (
+   IS =  4e-10
+   RS =  8
+   CJO =  6e-12
+   VJ =  0.75
+   TT =  4.2e-09
+   M =  0.28
+   BV =  65
+   N =  1.45
+   EG =  1.11
+   XTI =  3
+   KF =  0
+   AF =  1
+   FC =  0.5
+   IBV =  0.01
+   TNOM =  27
)

.MODEL KD522B D (
+   IS =  3e-10
+   RS =  5
+   CJO =  4e-12
+   VJ =  0.75
+   TT =  6.2e-12
+   M =  0.33
+   BV =  50
+   N =  1.4
+   EG =  1.11
+   XTI =  3
+   KF =  0
+   AF =  1
+   FC =  0.5
+   IBV =  0.01
+   TNOM =  27
)
