
.MODEL mMOS-EN NMOS (
+   VTO =  2.7
+   KP =  0.0009
+   LAMBDA =  0
+   PHI =  0.6
+   GAMMA =  0
+   RD =  0
+   RS =  0
+   IS =  1e-15
+   CGBO =  0
+   CGDO =  0
+   CGSO =  2.8e-11
+   CBD =  3.5e-11
+   CBS =  0
+   PB =  0.8
+   RSH =  0
+   CJ =  0
+   MJ =  0.5
+   CJSW =  0
+   MJSW =  0.5
+   JS =  0
+   TOX =  1e-07
+   NSUB =  1e+15
+   NSS =  0
+   TPG =  1
+   LD =  0
+   U0 =  600
+   KF =  0
+   AF =  1
+   FC =  0.5
+   TNOM =  27
)
