
.MODEL KT315Z PNP (
+   IS =  6.101e-14
+   BF =  150
+   BR =  0.2181
+   RB =  10
+   RE =  0
+   RC =  2.14
+   CJS =  0
+   CJE =  5.928e-12
+   CJC =  6.072e-12
+   VJE =  0.75
+   VJC =  0.75
+   TF =  4.14e-10
+   TR =  1.567e-06
+   MJE =  0.3333
+   MJC =  0.3333
+   VA =  57.37
+   ISE =  7.268e-14
+   IKF =  0.09779
+   NE =  1.305
+   NF =  1
+   NR =  1
+   VAR =  1e+30
+   IKR =  0
+   ISC =  0
+   NC =  2
+   IRB =  1e+30
+   RBM =  0
+   XTF =  8
+   VTF =  5
+   ITF =  0.2
+   PTF =  0
+   XCJC =  1
+   VJS =  0.75
+   MJS =  0
+   XTB =  1.5
+   EG =  1.11
+   XTI =  3
+   KF =  0
+   AF =  1
+   FC =  0.5
+   TNOM =  27
)
