.model pwrPNP01 PNP(Is=3.108p Xti=3 Eg=1.11 Vaf=100 Bf=142.3 Ise=6.491p
+               Ne=1.454 Ikf=11.52 Nk=.7978 Xtb=1.5 Br=1.376 Isc=67.94p
+               Nc=1.505 Ikr=.7805 Rc=.1082 Cjc=97.16p Mjc=.3333 Vjc=.5 Fc=.5
+               Cje=291.5p Mje=.3333 Vje=.5 Tr=1u Tf=1.557n Itf=448.8 Xtf=89.4
+               Vtf=10)
*		PHILIPS		pid=bdx35	case=TO126
*		91-08-12 dsq
*$
.model pwrPNP02 PNP(Is=3.108p Xti=3 Eg=1.11 Vaf=100 Bf=136.4 Ise=14.05p
+               Ne=1.373 Ikf=10.46 Nk=.7878 Xtb=1.5 Br=8.022 Isc=4.708p
+               Nc=1.658 Ikr=3.131 Rc=.1056 Cjc=97.16p Mjc=.3333 Vjc=.5 Fc=.5
+               Cje=291.5p Mje=.3333 Vje=.5 Tr=1u Tf=1.556n Itf=447.7 Xtf=90.04
+               Vtf=10)
*		PHILIPS		pid=bdx37	case=TO126
*		91-08-12 dsq
*$
.model pwrPNP03 PNP(Is=370.6f Xti=3 Eg=1.11 Vaf=100 Bf=34.44 Ise=7.119p
+               Ne=1.351 Ikf=9.232 Nk=.5851 Xtb=1.5 Br=3.89 Isc=674.4f Nc=1.417
+               Ikr=4.746 Rc=31.6m Cjc=607.3p Mjc=.3333 Vjc=.5 Fc=.5 Cje=1.822n
+               Mje=.3333 Vje=.5 Tr=3.416u Tf=26.69n Itf=1.383K Xtf=202.3K
+               Vtf=10)
*		TELEFUNKEN	pid=bux48a	case=TO3
*		91-08-15 dsq
*$
.model pwrPNP04 PNP(Is=9.744f Xti=3 Eg=1.11 Vaf=190.7 Bf=589.6 Ise=173.5f
+               Ne=1.416 Ikf=20.51m Nk=.5689 Xtb=1.5 Br=1 Isc=99.04p Nc=1.675
+               Ikr=10.67 Rc=1.971 Cjc=6.901p Mjc=.3333 Vjc=.5 Fc=.5 Cje=6.64p
+               Mje=.3333 Vje=.5 Tr=386.2n Tf=296.4p Itf=241.2 Xtf=496.2K
+               Vtf=10)
*		SIEMENS		pid=smbt3904	case=SOT23
*		91-09-05 dsq
*$
.model pwrPNP05 PNP(Is=9.744f Xti=3 Eg=1.11 Vaf=65.24 Bf=149.8 Ise=82.57f
+               Ne=1.449 Ikf=28.66m Nk=.4984 Xtb=1.5 Br=1 Isc=38.84p Nc=1.759
+               Ikr=9.336 Rc=1.714 Cjc=6.211p Mjc=.3333 Vjc=.5 Fc=.5 Cje=8.299p
+               Mje=.3333 Vje=.5 Tr=304.2n Tf=365.5p Itf=13.39 Xtf=148.4 Vtf=10
*		SIEMENS		pid=smbt3906	case=SOT23
*		91-09-05 dsq
*$
.model pwrPNP06 PNP(Is=67.34f Xti=3 Eg=1.11 Vaf=100 Bf=183.9 Ise=602.5f
+               Ne=1.428 Ikf=.4354 Nk=.648 Xtb=1.5 Br=111.8 Isc=1.068n Nc=1.667
+               Ikr=10.24 Rc=2.035 Cjc=16.82p Mjc=.3333 Vjc=.5 Fc=.5 Cje=50.46p
+               Mje=.3333 Vje=.5 Tr=83.81n Tf=503.5p Itf=4.162 Xtf=30.04 Vtf=10
*		SIEMENS		pid=smbt2907	case=SOT23
*		91-09-04 dsq
*$
.model pwrPNP07 PNP(Is=370.6f Xti=3 Eg=1.11 Vaf=100 Bf=34.44 Ise=7.119p
+               Ne=1.351 Ikf=9.232 Nk=.5851 Xtb=1.5 Br=3.89 Isc=674.4f Nc=1.417
+               Ikr=4.746 Rc=31.6m Cjc=607.3p Mjc=.3333 Vjc=.5 Fc=.5 Cje=1.822n
+               Mje=.3333 Vje=.5 Tr=4.048u Tf=26.69n Itf=1.383K Xtf=202.3K
+               Vtf=10)
*		TELEFUNKEN	pid=bux48	case=TO3
*		91-08-15 dsq
*$
.model pwrPNP08 PNP(Is=305.5f Xti=3 Eg=1.11 Vaf=100 Bf=54.08K Ise=536.1f
+               Ne=1.16 Ikf=13.47 Nk=.8217 Xtb=1.5 Br=3.59 Isc=852f Nc=1.46
+               Ikr=4.723 Rc=30.78m Cjc=364.4p Mjc=.3333 Vjc=.5 Fc=.5
+               Cje=1.093n Mje=.3333 Vje=.5 Tr=3.031u Tf=21.58n Itf=100.7
+               Xtf=293.8 Vtf=10)
*		TELEFUNKEN	pid=bux47a	case=TO3
*		91-08-15 dsq
*$.model pwrPNP09 PNP(Is=305.5f Xti=3 Eg=1.11 Vaf=100 Bf=54.08K Ise=536.1f
+               Ne=1.16 Ikf=13.47 Nk=.8217 Xtb=1.5 Br=3.59 Isc=852f Nc=1.46
+               Ikr=4.723 Rc=30.78m Cjc=364.4p Mjc=.3333 Vjc=.5 Fc=.5
+               Cje=1.093n Mje=.3333 Vje=.5 Tr=2.682u Tf=21.49n Itf=71.86
+               Xtf=157.1 Vtf=10)
*		TELEFUNKEN	pid=bux47	case=TO3
*		91-08-15 dsq
*$
.model pwrPNP10 PNP(Is=305.5f Xti=3 Eg=1.11 Vaf=100 Bf=92.39 Ise=609.6f
+               Ne=1.181 Ikf=19.52 Nk=.7617 Xtb=2 Br=19.28 Isc=733.1f Nc=1.49
+               Ikr=2.357 Rc=27.48m Cjc=607.3p Mjc=.3333 Vjc=.5 Fc=.5
+               Cje=1.822n Mje=.3333 Vje=.5 Tr=1.934u Tf=28.64n Itf=44.23
+               Xtf=136.6 Vtf=10)
*		TELEFUNKEN 	pid=buv48t	case=TOP3
*		91-08-15 dsq
*$
.model pwrPNP11 PNP(Is=743.3f Xti=3 Eg=1.11 Vaf=100 Bf=41.88 Ise=743.3f
+               Ne=1.171 Ikf=10.06 Nk=.5974 Xtb=1.5 Br=7.434 Isc=4.347p Nc=1.57
+               Ikr=2.795 Rc=31.86m Cjc=607.3p Mjc=.3333 Vjc=.5 Fc=.5
+               Cje=1.822n Mje=.3333 Vje=.5 Tr=2.445u Tf=30.15n Itf=202.4
+               Xtf=1.227K Vtf=10)
*		TELEFUNKEN	pid=buv48a	case=TOP3
*		91-08-15 dsq
*$
.model pwrPNP12 PNP(Is=743.3f Xti=3 Eg=1.11 Vaf=100 Bf=41.88 Ise=743.3f
+               Ne=1.171 Ikf=10.06 Nk=.5974 Xtb=1.5 Br=7.434 Isc=4.347p Nc=1.57
+               Ikr=2.795 Rc=31.86m Cjc=607.3p Mjc=.3333 Vjc=.5 Fc=.5
+               Cje=1.822n Mje=.3333 Vje=.5 Tr=2.944u Tf=30.09n Itf=106
+               Xtf=353.7 Vtf=10)
*		TELEFUNKEN	pid=buv48	case=TOP3
*		91-08-15 dsq
*$
.model pwrPNP13 PNP(Is=974.4f Xti=3 Eg=1.11 Vaf=100 Bf=94.74 Ise=2.566p
+               Ne=1.206 Ikf=15.7 Nk=.8401 Xtb=2 Br=20.89 Isc=198.1p Nc=1.474
+               Ikr=10.96 Rc=35.63m Cjc=364.4p Mjc=.3333 Vjc=.5 Fc=.5
+               Cje=1.093n Mje=.3333 Vje=.5 Tr=988.4n Tf=21.48n Itf=100.2
+               Xtf=205.4 Vtf=10)
*		TELEFUNKEN	pid=buv47	case=TOP3
*		91-08-15 dsq
*$
.model pwrPNP14 PNP(Is=974.4f Xti=3 Eg=1.11 Vaf=100 Bf=94.74 Ise=2.566p
+               Ne=1.206 Ikf=15.7 Nk=.8401 Xtb=2 Br=20.89 Isc=198.1p Nc=1.474
+               Ikr=10.96 Rc=35.63m Cjc=364.4p Mjc=.3333 Vjc=.5 Fc=.5
+               Cje=1.093n Mje=.3333 Vje=.5 Tr=988.4n Tf=21.48n Itf=100.2
+               Xtf=205.4 Vtf=10)
*		TELEFUNKEN	pid=buv47	case=TOP3
*		91-08-15 dsq
*$

.model pwrPNP15 PNP(Is=148.5p Xti=3 Eg=1.11 Vaf=100 Bf=43.23 Ise=1.355n
+               Ne=1.413 Ikf=8.245 Nk=.8069 Xtb=1.75 Br=2.131 Isc=529.1p
+               Nc=1.567 Ikr=1.689 Rc=32.64m Cjc=303.6p Mjc=.3333 Vjc=.5 Fc=.5
+               Cje=910.8p Mje=.3333 Vje=.5 Tr=16.1u Tf=22.02n Itf=183.6
+               Xtf=18.91K Vtf=10)
*		TELEFUNKEN	pid=bu508	case=TOP3
*		91-08-14 dsq
*$
.model pwrPNP16 PNP(Is=148.5p Xti=3 Eg=1.11 Vaf=100 Bf=43.23 Ise=1.355n
+               Ne=1.413 Ikf=8.245 Nk=.8069 Xtb=1.75 Br=2.131 Isc=529.1p
+               Nc=1.567 Ikr=1.689 Rc=32.64m Cjc=303.6p Mjc=.3333 Vjc=.5 Fc=.5
+               Cje=910.8p Mje=.3333 Vje=.5 Tr=16.1u Tf=22.02n Itf=183.6
+               Xtf=18.91K Vtf=10)
*		TELEFUNKEN	pid=bu508	case=TOP3
*		91-08-14 dsq
*$


* end of library
