.MODEL KT818V PNP (
+   IS =  3.108e-12
+   BF =  30
+   BR =  8.022
+   RB =  0
+   RE =  0
+   RC =  0.1056
+   CJS =  0
+   CJE =  2.915e-10
+   CJC =  9.716e-11
+   VJE =  0.5
+   VJC =  0.5
+   TF =  1.556e-09
+   TR =  1e-06
+   MJE =  0.3333
+   MJC =  0.3333
+   VA =  100
+   ISE =  1.405e-11
+   IKF =  10.46
+   NE =  1.373
+   NF =  1
+   NR =  1
+   VAR =  1e+30
+   IKR =  3.131
+   ISC =  4.708e-12
+   NC =  1.658
+   IRB =  1e+30
+   RBM =  0
+   XTF =  90.04
+   VTF =  10
+   ITF =  447.7
+   PTF =  0
+   XCJC =  1
+   VJS =  0.75
+   MJS =  0
+   XTB =  1.5
+   EG =  1.11
+   XTI =  3
+   KF =  0
+   AF =  1
+   FC =  0.5
+   TNOM =  27
)
.MODEL KT502B PNP (
+   IS =  1.703e-14
+   BF =  127.7
+   BR =  4.804
+   RB =  14.2
+   RE =  0
+   RC =  0.65
+   CJS =  0
+   CJE =  4.493e-12
+   CJC =  3.638e-12
+   VJE =  0.75
+   VJC =  0.75
+   TF =  1.795e-09
+   TR =  5.012e-08
+   MJE =  0.2593
+   MJC =  0.3085
+   VA =  74.03
+   ISE =  1.633e-13
+   IKF =  0.4095
+   NE =  1.368
+   NF =  1
+   NR =  1
+   VAR =  75
+   IKR =  0.21
+   ISC =  1.35e-12
+   NC =  2
+   IRB =  1e+30
+   RBM =  0
+   XTF =  2
+   VTF =  60
+   ITF =  0.65
+   PTF =  0
+   XCJC =  1
+   VJS =  0.75
+   MJS =  0
+   XTB =  1.5
+   EG =  1.11
+   XTI =  3
+   KF =  0
+   AF =  1
+   FC =  0.5
+   TNOM =  27
)