
.MODEL nJFET NJF (
+   VTO =  -2.7
+   BETA =  0.0009
+   LAMBDA =  0
+   RD =  0
+   RS =  0
+   IS =  2.455e-14
+   CGD =  2e-12
+   CGS =  1e-12
+   PB =  1
+   B =  1
+   KF =  8.821e-18
+   AF =  1
+   FC =  0.5
+   TNOM =  27
)
