
.MODEL 2P333A NJF (
+   VTO =  -1.1
+   BETA =  0.0025
+   LAMBDA =  0.01
+   RD =  1
+   RS =  1
+   IS =  1.973e-14
+   CGD =  5.6e-12
+   CGS =  6.044e-12
+   PB =  0.5
+   B =  1
+   KF =  4.592e-18
+   AF =  1
+   FC =  0.5
+   TNOM =  27
)

.MODEL 2P333B NJF (
+   VTO =  -1.2
+   BETA =  0.0015
+   LAMBDA =  0.0035
+   RD =  1
+   RS =  1
+   IS =  2.455e-14
+   CGD =  2e-12
+   CGS =  1e-12
+   PB =  1
+   B =  1
+   KF =  8.821e-18
+   AF =  1
+   FC =  0.5
+   TNOM =  27
)

.MODEL 2P333V NJF (
+   VTO =  -0.9
+   BETA =  0.0011
+   LAMBDA =  0.003
+   RD =  1
+   RS =  1
+   IS =  2.052e-13
+   CGD =  1.076e-11
+   CGS =  9.56e-12
+   PB =  1
+   B =  1
+   KF =  4.244e-16
+   AF =  1
+   FC =  0.5
+   TNOM =  27
)

.MODEL 2P341A NJF (
+   VTO =  -0.7414
+   BETA =  0.01628
+   LAMBDA =  0.008
+   RD =  1
+   RS =  1
+   IS =  2.052e-13
+   CGD =  1.076e-11
+   CGS =  9.56e-12
+   PB =  1
+   B =  1
+   KF =  4.931e-16
+   AF =  1
+   FC =  0.5
+   TNOM =  27
)

.MODEL 2P341B NJF (
+   VTO =  -0.9414
+   BETA =  0.012
+   LAMBDA =  0.01
+   RD =  1
+   RS =  1
+   IS =  1.973e-14
+   CGD =  5.6e-12
+   CGS =  6.044e-12
+   PB =  0.5
+   B =  1
+   KF =  4.592e-18
+   AF =  1
+   FC =  0.5
+   TNOM =  27
)

.MODEL 2P342A NJF (
+   VTO =  -0.5414
+   BETA =  0.025
+   LAMBDA =  0.0185
+   RD =  1
+   RS =  1
+   IS =  4.615e-13
+   CGD =  6.5e-12
+   CGS =  9e-12
+   PB =  1
+   B =  1
+   KF =  2.062e-16
+   AF =  1
+   FC =  0.5
+   TNOM =  27
)

.MODEL 2P364A NJF (
+   VTO =  -0.55
+   BETA =  0.011
+   LAMBDA =  0.009
+   RD =  1
+   RS =  1
+   IS =  1.145e-13
+   CGD =  2.8e-12
+   CGS =  2.916e-12
+   PB =  0.5
+   B =  1
+   KF =  2.863e-18
+   AF =  1
+   FC =  0.5
+   TNOM =  27
)

.MODEL 2P364G NJF (
+   VTO =  -1.1
+   BETA =  0.009
+   LAMBDA =  0.002333
+   RD =  1
+   RS =  1
+   IS =  1.145e-13
+   CGD =  2e-12
+   CGS =  2.083e-12
+   PB =  0.5
+   B =  1
+   KF =  2.697e-18
+   AF =  1
+   FC =  0.5
+   TNOM =  27
)

.MODEL J2N2609 NJF (
+   VTO =  -1.408
+   BETA =  0.0032
+   LAMBDA =  0.0185
+   RD =  1
+   RS =  1
+   IS =  4.615e-13
+   CGD =  6.5e-12
+   CGS =  9e-12
+   PB =  1
+   B =  1
+   KF =  2.062e-16
+   AF =  1
+   FC =  0.5
+   TNOM =  27
)

.MODEL J2N3370 NJF (
+   VTO =  -0.65
+   BETA =  0.0007668
+   LAMBDA =  0.009
+   RD =  1
+   RS =  1
+   IS =  1.145e-13
+   CGD =  2.8e-12
+   CGS =  2.916e-12
+   PB =  0.5
+   B =  1
+   KF =  2.863e-18
+   AF =  1
+   FC =  0.5
+   TNOM =  27
)

.MODEL J2N3686 NJF (
+   VTO =  -0.957
+   BETA =  0.0007237
+   LAMBDA =  0.002333
+   RD =  1
+   RS =  1
+   IS =  1.145e-13
+   CGD =  2e-12
+   CGS =  2.083e-12
+   PB =  0.5
+   B =  1
+   KF =  2.697e-18
+   AF =  1
+   FC =  0.5
+   TNOM =  27
)

.MODEL J2N3822 NJF (
+   VTO =  -1.962
+   BETA =  0.0011
+   LAMBDA =  0.00409
+   RD =  1
+   RS =  1
+   IS =  1.813e-13
+   CGD =  4e-12
+   CGS =  4.627e-12
+   PB =  0.5
+   B =  1
+   KF =  1.02e-17
+   AF =  1
+   FC =  0.5
+   TNOM =  27
)

.MODEL J401 NJF (
+   VTO =  -1.316
+   BETA =  0.001577
+   LAMBDA =  0.01
+   RD =  1
+   RS =  1
+   IS =  1.973e-14
+   CGD =  5.6e-12
+   CGS =  6.044e-12
+   PB =  0.5
+   B =  1
+   KF =  4.592e-18
+   AF =  1
+   FC =  0.5
+   TNOM =  27
)

.MODEL J412 NJF (
+   VTO =  -2
+   BETA =  0.0008588
+   LAMBDA =  0.0035
+   RD =  1
+   RS =  1
+   IS =  2.455e-14
+   CGD =  2e-12
+   CGS =  1e-12
+   PB =  1
+   B =  1
+   KF =  8.821e-18
+   AF =  1
+   FC =  0.5
+   TNOM =  27
)

.MODEL KP202D NJF (
+   VTO =  -1.5
+   BETA =  0.00035
+   LAMBDA =  0.00409
+   RD =  1
+   RS =  1
+   IS =  1.813e-13
+   CGD =  4e-12
+   CGS =  4.627e-12
+   PB =  0.5
+   B =  1
+   KF =  1.02e-17
+   AF =  1
+   FC =  0.5
+   TNOM =  27
)

.MODEL KP202E NJF (
+   VTO =  -1
+   BETA =  0.00093
+   LAMBDA =  0.01
+   RD =  1
+   RS =  1
+   IS =  1.973e-14
+   CGD =  5.6e-12
+   CGS =  6.044e-12
+   PB =  0.5
+   B =  1
+   KF =  4.592e-18
+   AF =  1
+   FC =  0.5
+   TNOM =  27
)

.MODEL KP303A NJF (
+   VTO =  -2
+   BETA =  0.0008588
+   LAMBDA =  0.0035
+   RD =  1
+   RS =  1
+   IS =  2.455e-14
+   CGD =  2e-12
+   CGS =  1e-12
+   PB =  1
+   B =  1
+   KF =  8.821e-18
+   AF =  1
+   FC =  0.5
+   TNOM =  27
)

.MODEL KP303B NJF (
+   VTO =  -2.2
+   BETA =  0.00048
+   LAMBDA =  0.003
+   RD =  1
+   RS =  1
+   IS =  2.052e-13
+   CGD =  1.076e-11
+   CGS =  9.56e-12
+   PB =  1
+   B =  1
+   KF =  4.244e-16
+   AF =  1
+   FC =  0.5
+   TNOM =  27
)

.MODEL KP303I NJF (
+   VTO =  -1.4
+   BETA =  0.00138
+   LAMBDA =  0.008
+   RD =  1
+   RS =  1
+   IS =  2.052e-13
+   CGD =  1.076e-11
+   CGS =  9.56e-12
+   PB =  1
+   B =  1
+   KF =  4.931e-16
+   AF =  1
+   FC =  0.5
+   TNOM =  27
)

.MODEL KP307A NJF (
+   VTO =  -2.3
+   BETA =  0.00085
+   LAMBDA =  0.01
+   RD =  1
+   RS =  1
+   IS =  1.973e-14
+   CGD =  5.6e-12
+   CGS =  6.044e-12
+   PB =  0.5
+   B =  1
+   KF =  4.592e-18
+   AF =  1
+   FC =  0.5
+   TNOM =  27
)

.MODEL KP307E NJF (
+   VTO =  -2.25
+   BETA =  0.0013
+   LAMBDA =  0.0185
+   RD =  1
+   RS =  1
+   IS =  4.615e-13
+   CGD =  6.5e-12
+   CGS =  9e-12
+   PB =  1
+   B =  1
+   KF =  2.062e-16
+   AF =  1
+   FC =  0.5
+   TNOM =  27
)

.MODEL KP308A NJF (
+   VTO =  -0.5
+   BETA =  0.0051
+   LAMBDA =  0.009
+   RD =  1
+   RS =  1
+   IS =  1.145e-13
+   CGD =  2.8e-12
+   CGS =  2.916e-12
+   PB =  0.5
+   B =  1
+   KF =  2.863e-18
+   AF =  1
+   FC =  0.5
+   TNOM =  27
)

.MODEL KP308B NJF (
+   VTO =  -0.65
+   BETA =  0.004
+   LAMBDA =  0.002333
+   RD =  1
+   RS =  1
+   IS =  1.145e-13
+   CGD =  2e-12
+   CGS =  2.083e-12
+   PB =  0.5
+   B =  1
+   KF =  2.697e-18
+   AF =  1
+   FC =  0.5
+   TNOM =  27
)

.MODEL KP308D NJF (
+   VTO =  -1.5
+   BETA =  0.0009
+   LAMBDA =  0.00409
+   RD =  1
+   RS =  1
+   IS =  1.813e-13
+   CGD =  4e-12
+   CGS =  4.627e-12
+   PB =  0.5
+   B =  1
+   KF =  1.02e-17
+   AF =  1
+   FC =  0.5
+   TNOM =  27
)

.MODEL NF5101 NJF (
+   VTO =  -0.7414
+   BETA =  0.01242
+   LAMBDA =  0.003
+   RD =  1
+   RS =  1
+   IS =  2.052e-13
+   CGD =  1.076e-11
+   CGS =  9.56e-12
+   PB =  1
+   B =  1
+   KF =  4.244e-16
+   AF =  1
+   FC =  0.5
+   TNOM =  27
)

.MODEL NF5102 NJF (
+   VTO =  -1.001
+   BETA =  0.01428
+   LAMBDA =  0.008
+   RD =  1
+   RS =  1
+   IS =  2.052e-13
+   CGD =  1.076e-11
+   CGS =  9.56e-12
+   PB =  1
+   B =  1
+   KF =  4.931e-16
+   AF =  1
+   FC =  0.5
+   TNOM =  27
)

.MODEL U403 NJF (
+   VTO =  -1.316
+   BETA =  0.001577
+   LAMBDA =  0.01
+   RD =  1
+   RS =  1
+   IS =  1.973e-14
+   CGD =  5.6e-12
+   CGS =  6.044e-12
+   PB =  0.5
+   B =  1
+   KF =  4.592e-18
+   AF =  1
+   FC =  0.5
+   TNOM =  27
)
