
.MODEL KP308D NJF (
+   VTO =  -1.5
+   BETA =  0.00083
+   LAMBDA =  0.006
+   RD =  10
+   RS =  10
+   IS =  1.145e-13
+   CGD =  2.8e-12
+   CGS =  2.916e-12
+   PB =  0.5
+   B =  1
+   KF =  2.59e-18
+   AF =  1
+   FC =  0.5
+   TNOM =  27
)

.MODEL KP307Z NJF (
+   VTO =  -6
+   BETA =  0.00034
+   LAMBDA =  0.006
+   RD =  10
+   RS =  10
+   IS =  1.145e-13
+   CGD =  2.8e-12
+   CGS =  2.916e-12
+   PB =  0.5
+   B =  1
+   KF =  2.59e-18
+   AF =  1
+   FC =  0.5
+   TNOM =  27
)
