
.MODEL KT3102A NPN (
+   IS =  5.258e-15
+   BF =  180
+   BR =  2.713
+   RB =  10
+   RE =  0
+   RC =  1.65
+   CJS =  0
+   CJE =  1.13e-11
+   CJC =  3.638e-12
+   VJE =  0.75
+   VJC =  0.75
+   TF =  6.115e-10
+   TR =  5.77e-08
+   MJE =  0.2593
+   MJC =  0.3085
+   VA =  86
+   ISE =  2.821e-08
+   IKF =  0.4922
+   NE =  7.428
+   NF =  1
+   NR =  1
+   VAR =  50
+   IKR =  0.25
+   ISC =  2.12e-11
+   NC =  2
+   IRB =  1e+30
+   RBM =  0
+   XTF =  2
+   VTF =  80
+   ITF =  0.52
+   PTF =  0
+   XCJC =  1
+   VJS =  0.65
+   MJS =  0.33
+   XTB =  1.5
+   EG =  1.11
+   XTI =  3
+   KF =  0
+   AF =  1
+   FC =  0.5
+   TNOM =  27
)

.MODEL KT3102B NPN (
+   IS =  5.258e-15
+   BF =  303.3
+   BR =  2.713
+   RB =  52
+   RE =  0
+   RC =  1.65
+   CJS =  0
+   CJE =  1.13e-11
+   CJC =  3.638e-12
+   VJE =  0.75
+   VJC =  0.75
+   TF =  6.115e-10
+   TR =  5.77e-08
+   MJE =  0.2593
+   MJC =  0.3085
+   VA =  86
+   ISE =  2.821e-08
+   IKF =  0.4922
+   NE =  7.428
+   NF =  1
+   NR =  1
+   VAR =  25
+   IKR =  0.25
+   ISC =  2.12e-11
+   NC =  2
+   IRB =  1e+30
+   RBM =  0
+   XTF =  2
+   VTF =  80
+   ITF =  0.52
+   PTF =  0
+   XCJC =  1
+   VJS =  0.65
+   MJS =  0.33
+   XTB =  1.5
+   EG =  1.11
+   XTI =  3
+   KF =  0
+   AF =  1
+   FC =  0.5
+   TNOM =  27
)

.MODEL KT3102D NPN (
+   IS =  5.258e-15
+   BF =  420
+   BR =  2.713
+   RB =  52
+   RE =  0
+   RC =  1.65
+   CJS =  0
+   CJE =  1.13e-11
+   CJC =  3.638e-12
+   VJE =  0.75
+   VJC =  0.75
+   TF =  6.115e-10
+   TR =  5.77e-08
+   MJE =  0.2593
+   MJC =  0.3085
+   VA =  86
+   ISE =  2.821e-08
+   IKF =  0.4922
+   NE =  7.428
+   NF =  1
+   NR =  1
+   VAR =  25
+   IKR =  0.25
+   ISC =  2.12e-11
+   NC =  2
+   IRB =  1e+30
+   RBM =  0
+   XTF =  2
+   VTF =  80
+   ITF =  0.52
+   PTF =  0
+   XCJC =  1
+   VJS =  0.65
+   MJS =  0.33
+   XTB =  1.5
+   EG =  1.11
+   XTI =  3
+   KF =  0
+   AF =  1
+   FC =  0.5
+   TNOM =  27
)

.MODEL KT3102E NPN (
+   IS =  5.258e-15
+   BF =  610
+   BR =  2.713
+   RB =  52
+   RE =  0
+   RC =  1.65
+   CJS =  0
+   CJE =  1.13e-11
+   CJC =  3.638e-12
+   VJE =  0.75
+   VJC =  0.75
+   TF =  6.115e-10
+   TR =  5.77e-08
+   MJE =  0.2593
+   MJC =  0.3085
+   VA =  86
+   ISE =  2.821e-08
+   IKF =  0.4922
+   NE =  7.428
+   NF =  1
+   NR =  1
+   VAR =  25
+   IKR =  0.25
+   ISC =  2.12e-11
+   NC =  2
+   IRB =  1e+30
+   RBM =  0
+   XTF =  2
+   VTF =  80
+   ITF =  0.52
+   PTF =  0
+   XCJC =  1
+   VJS =  0.65
+   MJS =  0.33
+   XTB =  1.5
+   EG =  1.11
+   XTI =  3
+   KF =  0
+   AF =  1
+   FC =  0.5
+   TNOM =  27
)

.MODEL KT3102G NPN (
+   IS =  5.258e-15
+   BF =  540
+   BR =  2.713
+   RB =  10
+   RE =  0
+   RC =  1.65
+   CJS =  0
+   CJE =  1.13e-11
+   CJC =  3.638e-12
+   VJE =  0.75
+   VJC =  0.75
+   TF =  6.115e-10
+   TR =  5.77e-08
+   MJE =  0.2593
+   MJC =  0.3085
+   VA =  86
+   ISE =  2.821e-08
+   IKF =  0.4922
+   NE =  7.428
+   NF =  1
+   NR =  1
+   VAR =  50
+   IKR =  0.25
+   ISC =  2.12e-11
+   NC =  2
+   IRB =  1e+30
+   RBM =  0
+   XTF =  2
+   VTF =  80
+   ITF =  0.52
+   PTF =  0
+   XCJC =  1
+   VJS =  0.65
+   MJS =  0.33
+   XTB =  1.5
+   EG =  1.11
+   XTI =  3
+   KF =  0
+   AF =  1
+   FC =  0.5
+   TNOM =  27
)

.MODEL KT3102V NPN (
+   IS =  5.258e-15
+   BF =  340
+   BR =  2.713
+   RB =  10
+   RE =  0
+   RC =  1.65
+   CJS =  0
+   CJE =  1.13e-11
+   CJC =  3.638e-12
+   VJE =  0.75
+   VJC =  0.75
+   TF =  6.115e-10
+   TR =  5.77e-08
+   MJE =  0.2593
+   MJC =  0.3085
+   VA =  86
+   ISE =  2.821e-08
+   IKF =  0.4922
+   NE =  7.428
+   NF =  1
+   NR =  1
+   VAR =  50
+   IKR =  0.25
+   ISC =  2.12e-11
+   NC =  2
+   IRB =  1e+30
+   RBM =  0
+   XTF =  2
+   VTF =  80
+   ITF =  0.52
+   PTF =  0
+   XCJC =  1
+   VJS =  0.65
+   MJS =  0.33
+   XTB =  1.5
+   EG =  1.11
+   XTI =  3
+   KF =  0
+   AF =  1
+   FC =  0.5
+   TNOM =  27
)

.MODEL KT315A NPN (
+   IS =  6.101e-14
+   BF =  50
+   BR =  0.2181
+   RB =  10
+   RE =  0
+   RC =  2.14
+   CJS =  0
+   CJE =  5.928e-12
+   CJC =  6.072e-12
+   VJE =  0.75
+   VJC =  0.75
+   TF =  4.14e-10
+   TR =  1.567e-06
+   MJE =  0.3333
+   MJC =  0.3333
+   VA =  57.37
+   ISE =  7.268e-14
+   IKF =  0.09779
+   NE =  1.305
+   NF =  1
+   NR =  1
+   VAR =  1e+30
+   IKR =  0
+   ISC =  0
+   NC =  2
+   IRB =  1e+30
+   RBM =  0
+   XTF =  8
+   VTF =  5
+   ITF =  0.2
+   PTF =  0
+   XCJC =  1
+   VJS =  0.75
+   MJS =  0
+   XTB =  1.5
+   EG =  1.11
+   XTI =  3
+   KF =  0
+   AF =  1
+   FC =  0.5
+   TNOM =  27
)

.MODEL KT315B NPN (
+   IS =  6.101e-14
+   BF =  210
+   BR =  0.2181
+   RB =  10
+   RE =  0
+   RC =  2.14
+   CJS =  0
+   CJE =  5.928e-12
+   CJC =  6.072e-12
+   VJE =  0.75
+   VJC =  0.75
+   TF =  4.14e-10
+   TR =  1.567e-06
+   MJE =  0.3333
+   MJC =  0.3333
+   VA =  57.37
+   ISE =  7.268e-14
+   IKF =  0.09779
+   NE =  1.305
+   NF =  1
+   NR =  1
+   VAR =  100
+   IKR =  0
+   ISC =  0
+   NC =  2
+   IRB =  1e+30
+   RBM =  0
+   XTF =  8
+   VTF =  5
+   ITF =  0.2
+   PTF =  0
+   XCJC =  1
+   VJS =  0.75
+   MJS =  0
+   XTB =  1.5
+   EG =  1.11
+   XTI =  3
+   KF =  0
+   AF =  1
+   FC =  0.5
+   TNOM =  27
)

.MODEL KT315D NPN (
+   IS =  6.101e-14
+   BF =  90
+   BR =  0.2181
+   RB =  10
+   RE =  0
+   RC =  2.14
+   CJS =  0
+   CJE =  5.928e-12
+   CJC =  6.072e-12
+   VJE =  0.75
+   VJC =  0.75
+   TF =  4.14e-10
+   TR =  1.567e-06
+   MJE =  0.3333
+   MJC =  0.3333
+   VA =  57.37
+   ISE =  7.268e-14
+   IKF =  0.09779
+   NE =  1.305
+   NF =  1
+   NR =  1
+   VAR =  100
+   IKR =  0
+   ISC =  0
+   NC =  2
+   IRB =  1e+30
+   RBM =  0
+   XTF =  8
+   VTF =  5
+   ITF =  0.2
+   PTF =  0
+   XCJC =  1
+   VJS =  0.75
+   MJS =  0
+   XTB =  1.5
+   EG =  1.11
+   XTI =  3
+   KF =  0
+   AF =  1
+   FC =  0.5
+   TNOM =  27
)

.MODEL KT315E NPN (
+   IS =  6.101e-14
+   BF =  220
+   BR =  0.2181
+   RB =  10
+   RE =  0
+   RC =  2.14
+   CJS =  0
+   CJE =  5.928e-12
+   CJC =  6.072e-12
+   VJE =  0.75
+   VJC =  0.75
+   TF =  4.14e-10
+   TR =  1.567e-06
+   MJE =  0.3333
+   MJC =  0.3333
+   VA =  57.37
+   ISE =  7.268e-14
+   IKF =  0.09779
+   NE =  1.305
+   NF =  1
+   NR =  1
+   VAR =  100
+   IKR =  0
+   ISC =  0
+   NC =  2
+   IRB =  1e+30
+   RBM =  0
+   XTF =  8
+   VTF =  5
+   ITF =  0.2
+   PTF =  0
+   XCJC =  1
+   VJS =  0.75
+   MJS =  0
+   XTB =  1.5
+   EG =  1.11
+   XTI =  3
+   KF =  0
+   AF =  1
+   FC =  0.5
+   TNOM =  27
)

.MODEL KT315G NPN (
+   IS =  6.101e-14
+   BF =  100
+   BR =  0.2181
+   RB =  10
+   RE =  0
+   RC =  2.14
+   CJS =  0
+   CJE =  5.928e-12
+   CJC =  6.072e-12
+   VJE =  0.75
+   VJC =  0.75
+   TF =  4.14e-10
+   TR =  1.567e-06
+   MJE =  0.3333
+   MJC =  0.3333
+   VA =  57.37
+   ISE =  7.268e-14
+   IKF =  0.09779
+   NE =  1.305
+   NF =  1
+   NR =  1
+   VAR =  100
+   IKR =  0
+   ISC =  0
+   NC =  2
+   IRB =  1e+30
+   RBM =  0
+   XTF =  8
+   VTF =  5
+   ITF =  0.2
+   PTF =  0
+   XCJC =  1
+   VJS =  0.75
+   MJS =  0
+   XTB =  1.5
+   EG =  1.11
+   XTI =  3
+   KF =  0
+   AF =  1
+   FC =  0.5
+   TNOM =  27
)

.MODEL KT315I NPN (
+   IS =  6.101e-14
+   BF =  120
+   BR =  0.2181
+   RB =  10
+   RE =  0
+   RC =  2.14
+   CJS =  0
+   CJE =  5.928e-12
+   CJC =  6.072e-12
+   VJE =  0.75
+   VJC =  0.75
+   TF =  4.14e-10
+   TR =  1.567e-06
+   MJE =  0.3333
+   MJC =  0.3333
+   VA =  57.37
+   ISE =  7.268e-14
+   IKF =  0.09779
+   NE =  1.305
+   NF =  1
+   NR =  1
+   VAR =  100
+   IKR =  0
+   ISC =  0
+   NC =  2
+   IRB =  1e+30
+   RBM =  0
+   XTF =  8
+   VTF =  5
+   ITF =  0.2
+   PTF =  0
+   XCJC =  1
+   VJS =  0.75
+   MJS =  0
+   XTB =  1.5
+   EG =  1.11
+   XTI =  3
+   KF =  0
+   AF =  1
+   FC =  0.5
+   TNOM =  27
)

.MODEL KT315V NPN (
+   IS =  6.101e-14
+   BF =  75
+   BR =  0.2181
+   RB =  10
+   RE =  0
+   RC =  2.14
+   CJS =  0
+   CJE =  5.928e-12
+   CJC =  6.072e-12
+   VJE =  0.75
+   VJC =  0.75
+   TF =  4.14e-10
+   TR =  1.567e-06
+   MJE =  0.3333
+   MJC =  0.3333
+   VA =  57.37
+   ISE =  7.268e-14
+   IKF =  0.09779
+   NE =  1.305
+   NF =  1
+   NR =  1
+   VAR =  100
+   IKR =  0
+   ISC =  0
+   NC =  2
+   IRB =  1e+30
+   RBM =  0
+   XTF =  8
+   VTF =  5
+   ITF =  0.2
+   PTF =  0
+   XCJC =  1
+   VJS =  0.75
+   MJS =  0
+   XTB =  1.5
+   EG =  1.11
+   XTI =  3
+   KF =  0
+   AF =  1
+   FC =  0.5
+   TNOM =  27
)

.MODEL KT315Z NPN (
+   IS =  6.101e-14
+   BF =  150
+   BR =  0.2181
+   RB =  10
+   RE =  0
+   RC =  2.14
+   CJS =  0
+   CJE =  5.928e-12
+   CJC =  6.072e-12
+   VJE =  0.75
+   VJC =  0.75
+   TF =  4.14e-10
+   TR =  1.567e-06
+   MJE =  0.3333
+   MJC =  0.3333
+   VA =  57.37
+   ISE =  7.268e-14
+   IKF =  0.09779
+   NE =  1.305
+   NF =  1
+   NR =  1
+   VAR =  100
+   IKR =  0
+   ISC =  0
+   NC =  2
+   IRB =  1e+30
+   RBM =  0
+   XTF =  8
+   VTF =  5
+   ITF =  0.2
+   PTF =  0
+   XCJC =  1
+   VJS =  0.75
+   MJS =  0
+   XTB =  1.5
+   EG =  1.11
+   XTI =  3
+   KF =  0
+   AF =  1
+   FC =  0.5
+   TNOM =  27
)

.MODEL KT316A NPN (
+   IS =  6.101e-14
+   BF =  40
+   BR =  0.2181
+   RB =  10
+   RE =  0
+   RC =  7.33
+   CJS =  0
+   CJE =  5.928e-12
+   CJC =  6.072e-12
+   VJE =  0.75
+   VJC =  0.75
+   TF =  4.14e-10
+   TR =  1.567e-06
+   MJE =  0.3333
+   MJC =  0.3333
+   VA =  67.4
+   ISE =  1.32e-14
+   IKF =  0.09779
+   NE =  1.35
+   NF =  1
+   NR =  1
+   VAR =  50
+   IKR =  0
+   ISC =  0
+   NC =  2
+   IRB =  1e+30
+   RBM =  0
+   XTF =  8
+   VTF =  5
+   ITF =  0.2
+   PTF =  0
+   XCJC =  1
+   VJS =  0.7
+   MJS =  0
+   XTB =  1.5
+   EG =  1.11
+   XTI =  3
+   KF =  0
+   AF =  1
+   FC =  0.5
+   TNOM =  27
)

.MODEL KT316B NPN (
+   IS =  6.101e-14
+   BF =  75
+   BR =  0.2181
+   RB =  10
+   RE =  0
+   RC =  7.33
+   CJS =  0
+   CJE =  5.928e-12
+   CJC =  6.072e-12
+   VJE =  0.75
+   VJC =  0.75
+   TF =  4.14e-10
+   TR =  1.567e-06
+   MJE =  0.3333
+   MJC =  0.3333
+   VA =  67.4
+   ISE =  1.32e-14
+   IKF =  0.09779
+   NE =  1.35
+   NF =  1
+   NR =  1
+   VAR =  50
+   IKR =  0
+   ISC =  0
+   NC =  2
+   IRB =  1e+30
+   RBM =  0
+   XTF =  8
+   VTF =  5
+   ITF =  0.2
+   PTF =  0
+   XCJC =  1
+   VJS =  0.7
+   MJS =  0
+   XTB =  1.5
+   EG =  1.11
+   XTI =  3
+   KF =  0
+   AF =  1
+   FC =  0.5
+   TNOM =  27
)

.MODEL KT316D NPN (
+   IS =  6.101e-14
+   BF =  150
+   BR =  0.2181
+   RB =  10
+   RE =  0
+   RC =  7.33
+   CJS =  0
+   CJE =  5.928e-12
+   CJC =  6.072e-12
+   VJE =  0.75
+   VJC =  0.75
+   TF =  4.14e-10
+   TR =  1.567e-06
+   MJE =  0.3333
+   MJC =  0.3333
+   VA =  67.4
+   ISE =  1.32e-14
+   IKF =  0.09779
+   NE =  1.35
+   NF =  1
+   NR =  1
+   VAR =  50
+   IKR =  0
+   ISC =  0
+   NC =  2
+   IRB =  1e+30
+   RBM =  0
+   XTF =  8
+   VTF =  5
+   ITF =  0.2
+   PTF =  0
+   XCJC =  1
+   VJS =  0.7
+   MJS =  0
+   XTB =  1.5
+   EG =  1.11
+   XTI =  3
+   KF =  0
+   AF =  1
+   FC =  0.5
+   TNOM =  27
)

.MODEL KT316G NPN (
+   IS =  6.101e-14
+   BF =  60
+   BR =  0.2181
+   RB =  10
+   RE =  0
+   RC =  7.33
+   CJS =  0
+   CJE =  5.928e-12
+   CJC =  6.072e-12
+   VJE =  0.75
+   VJC =  0.75
+   TF =  4.14e-10
+   TR =  1.567e-06
+   MJE =  0.3333
+   MJC =  0.3333
+   VA =  67.4
+   ISE =  1.32e-14
+   IKF =  0.09779
+   NE =  1.35
+   NF =  1
+   NR =  1
+   VAR =  50
+   IKR =  0
+   ISC =  0
+   NC =  2
+   IRB =  1e+30
+   RBM =  0
+   XTF =  8
+   VTF =  5
+   ITF =  0.2
+   PTF =  0
+   XCJC =  1
+   VJS =  0.7
+   MJS =  0
+   XTB =  1.5
+   EG =  1.11
+   XTI =  3
+   KF =  0
+   AF =  1
+   FC =  0.5
+   TNOM =  27
)

.MODEL KT316V NPN (
+   IS =  6.101e-14
+   BF =  90
+   BR =  0.2181
+   RB =  10
+   RE =  0
+   RC =  7.33
+   CJS =  0
+   CJE =  5.928e-12
+   CJC =  6.072e-12
+   VJE =  0.75
+   VJC =  0.75
+   TF =  4.14e-10
+   TR =  1.567e-06
+   MJE =  0.3333
+   MJC =  0.3333
+   VA =  67.4
+   ISE =  1.32e-14
+   IKF =  0.09779
+   NE =  1.35
+   NF =  1
+   NR =  1
+   VAR =  50
+   IKR =  0
+   ISC =  0
+   NC =  2
+   IRB =  1e+30
+   RBM =  0
+   XTF =  8
+   VTF =  5
+   ITF =  0.2
+   PTF =  0
+   XCJC =  1
+   VJS =  0.7
+   MJS =  0
+   XTB =  1.5
+   EG =  1.11
+   XTI =  3
+   KF =  0
+   AF =  1
+   FC =  0.5
+   TNOM =  27
)

.MODEL KT355A NPN (
+   IS =  1.402e-14
+   BF =  170
+   BR =  0.8636
+   RB =  10
+   RE =  0
+   RC =  3.55
+   CJS =  0
+   CJE =  5.928e-12
+   CJC =  6.072e-12
+   VJE =  0.75
+   VJC =  0.75
+   TF =  4.14e-10
+   TR =  1.567e-06
+   MJE =  0.3333
+   MJC =  0.3333
+   VA =  67.4
+   ISE =  9.53e-14
+   IKF =  0.2809
+   NE =  2.11
+   NF =  1
+   NR =  1
+   VAR =  50
+   IKR =  0.253
+   ISC =  1.12e-14
+   NC =  2
+   IRB =  1e+30
+   RBM =  0
+   XTF =  8
+   VTF =  5
+   ITF =  0.2
+   PTF =  0
+   XCJC =  1
+   VJS =  0.7
+   MJS =  0.33
+   XTB =  1.5
+   EG =  1.11
+   XTI =  3
+   KF =  0
+   AF =  1
+   FC =  0.5
+   TNOM =  27
)

.MODEL KT368A NPN (
+   IS =  1.402e-14
+   BF =  130
+   BR =  0.8636
+   RB =  10
+   RE =  0
+   RC =  3.55
+   CJS =  0
+   CJE =  5.928e-12
+   CJC =  6.072e-12
+   VJE =  0.75
+   VJC =  0.75
+   TF =  4.14e-10
+   TR =  1.567e-06
+   MJE =  0.3333
+   MJC =  0.3333
+   VA =  67.4
+   ISE =  9.53e-14
+   IKF =  0.2809
+   NE =  2.11
+   NF =  1
+   NR =  1
+   VAR =  50
+   IKR =  0.253
+   ISC =  1.12e-14
+   NC =  2
+   IRB =  1e+30
+   RBM =  0
+   XTF =  8
+   VTF =  5
+   ITF =  0.2
+   PTF =  0
+   XCJC =  1
+   VJS =  0.7
+   MJS =  0.33
+   XTB =  1.5
+   EG =  1.11
+   XTI =  3
+   KF =  0
+   AF =  1
+   FC =  0.5
+   TNOM =  27
)

.MODEL KT368B NPN (
+   IS =  1.402e-14
+   BF =  160
+   BR =  0.8636
+   RB =  10
+   RE =  0
+   RC =  3.55
+   CJS =  0
+   CJE =  5.928e-12
+   CJC =  6.072e-12
+   VJE =  0.75
+   VJC =  0.75
+   TF =  4.14e-10
+   TR =  1.567e-06
+   MJE =  0.3333
+   MJC =  0.3333
+   VA =  67.4
+   ISE =  9.53e-14
+   IKF =  0.2809
+   NE =  2.11
+   NF =  1
+   NR =  1
+   VAR =  50
+   IKR =  0.253
+   ISC =  1.12e-14
+   NC =  2
+   IRB =  1e+30
+   RBM =  0
+   XTF =  8
+   VTF =  5
+   ITF =  0.2
+   PTF =  0
+   XCJC =  1
+   VJS =  0.7
+   MJS =  0.33
+   XTB =  1.5
+   EG =  1.11
+   XTI =  3
+   KF =  0
+   AF =  1
+   FC =  0.5
+   TNOM =  27
)

.MODEL KT371A NPN (
+   IS =  1.378e-15
+   BF =  240
+   BR =  3.414
+   RB =  10
+   RE =  0
+   RC =  2.8
+   CJS =  0
+   CJE =  8.307e-12
+   CJC =  5.777e-12
+   VJE =  0.75
+   VJC =  0.75
+   TF =  4.378e-11
+   TR =  1.365e-08
+   MJE =  0.384
+   MJC =  0.3199
+   VA =  37.37
+   ISE =  4.38e-14
+   IKF =  0.1777
+   NE =  1.479
+   NF =  1
+   NR =  1
+   VAR =  50
+   IKR =  0.035
+   ISC =  5.5e-14
+   NC =  2
+   IRB =  1e+30
+   RBM =  0
+   XTF =  2
+   VTF =  10
+   ITF =  0.35
+   PTF =  0
+   XCJC =  1
+   VJS =  0.75
+   MJS =  0
+   XTB =  1.5
+   EG =  1.11
+   XTI =  3
+   KF =  0
+   AF =  1
+   FC =  0.5
+   TNOM =  27
)

.MODEL KT371B NPN (
+   IS =  1.378e-15
+   BF =  180
+   BR =  3.414
+   RB =  10
+   RE =  0
+   RC =  2.8
+   CJS =  0
+   CJE =  8.307e-12
+   CJC =  5.777e-12
+   VJE =  0.75
+   VJC =  0.75
+   TF =  4.378e-11
+   TR =  1.365e-08
+   MJE =  0.384
+   MJC =  0.3199
+   VA =  37.37
+   ISE =  4.38e-14
+   IKF =  0.1777
+   NE =  1.479
+   NF =  1
+   NR =  1
+   VAR =  50
+   IKR =  0.035
+   ISC =  5.5e-14
+   NC =  2
+   IRB =  1e+30
+   RBM =  0
+   XTF =  2
+   VTF =  10
+   ITF =  0.35
+   PTF =  0
+   XCJC =  1
+   VJS =  0.75
+   MJS =  0
+   XTB =  1.5
+   EG =  1.11
+   XTI =  3
+   KF =  0
+   AF =  1
+   FC =  0.5
+   TNOM =  27
)

.MODEL KT373A NPN (
+   IS =  1.203e-14
+   BF =  130
+   BR =  4.379
+   RB =  10
+   RE =  0
+   RC =  1
+   CJS =  0
+   CJE =  8.307e-12
+   CJC =  5.777e-12
+   VJE =  0.75
+   VJC =  0.75
+   TF =  3.854e-10
+   TR =  7.321e-10
+   MJE =  0.384
+   MJC =  0.3199
+   VA =  37.37
+   ISE =  4.958e-12
+   IKF =  0.1072
+   NE =  1.971
+   NF =  1
+   NR =  1
+   VAR =  100
+   IKR =  0
+   ISC =  0
+   NC =  2
+   IRB =  1e+30
+   RBM =  0
+   XTF =  8
+   VTF =  3
+   ITF =  0.17
+   PTF =  0
+   XCJC =  1
+   VJS =  0.75
+   MJS =  0
+   XTB =  1.5
+   EG =  1.11
+   XTI =  3
+   KF =  0
+   AF =  1
+   FC =  0.5
+   TNOM =  27
)

.MODEL KT373B NPN (
+   IS =  1.203e-14
+   BF =  420
+   BR =  4.379
+   RB =  10
+   RE =  0
+   RC =  1
+   CJS =  0
+   CJE =  8.307e-12
+   CJC =  5.777e-12
+   VJE =  0.75
+   VJC =  0.75
+   TF =  3.854e-10
+   TR =  7.017e-10
+   MJE =  0.384
+   MJC =  0.3199
+   VA =  37.37
+   ISE =  2.953e-12
+   IKF =  0.1072
+   NE =  1.971
+   NF =  1
+   NR =  1
+   VAR =  100
+   IKR =  0
+   ISC =  0
+   NC =  2
+   IRB =  1e+30
+   RBM =  0
+   XTF =  8
+   VTF =  3
+   ITF =  0.17
+   PTF =  0
+   XCJC =  1
+   VJS =  0.75
+   MJS =  0
+   XTB =  1.5
+   EG =  1.11
+   XTI =  3
+   KF =  0
+   AF =  1
+   FC =  0.5
+   TNOM =  27
)

.MODEL KT373G NPN (
+   IS =  6.101e-14
+   BF =  130
+   BR =  0.2359
+   RB =  10
+   RE =  0
+   RC =  2.14
+   CJS =  0
+   CJE =  5.928e-12
+   CJC =  6.072e-12
+   VJE =  0.75
+   VJC =  0.75
+   TF =  3.163e-10
+   TR =  1.633e-06
+   MJE =  0.3333
+   MJC =  0.3333
+   VA =  57.37
+   ISE =  1.222e-13
+   IKF =  0.09779
+   NE =  1.305
+   NF =  1
+   NR =  1
+   VAR =  100
+   IKR =  0
+   ISC =  0
+   NC =  2
+   IRB =  1e+30
+   RBM =  0
+   XTF =  8
+   VTF =  5
+   ITF =  0.2
+   PTF =  0
+   XCJC =  1
+   VJS =  0.75
+   MJS =  0
+   XTB =  1.5
+   EG =  1.11
+   XTI =  3
+   KF =  0
+   AF =  1
+   FC =  0.5
+   TNOM =  27
)

.MODEL KT373V NPN (
+   IS =  1.203e-14
+   BF =  680
+   BR =  4.379
+   RB =  10
+   RE =  0
+   RC =  1
+   CJS =  0
+   CJE =  8.307e-12
+   CJC =  5.777e-12
+   VJE =  0.75
+   VJC =  0.75
+   TF =  3.854e-10
+   TR =  6.853e-10
+   MJE =  0.384
+   MJC =  0.3199
+   VA =  37.37
+   ISE =  1.842e-14
+   IKF =  0.1072
+   NE =  1.971
+   NF =  1
+   NR =  1
+   VAR =  100
+   IKR =  0
+   ISC =  0
+   NC =  2
+   IRB =  1e+30
+   RBM =  0
+   XTF =  8
+   VTF =  3
+   ITF =  0.17
+   PTF =  0
+   XCJC =  1
+   VJS =  0.75
+   MJS =  0
+   XTB =  1.5
+   EG =  1.11
+   XTI =  3
+   KF =  0
+   AF =  1
+   FC =  0.5
+   TNOM =  27
)

.MODEL KT375A NPN (
+   IS =  1.203e-14
+   BF =  300
+   BR =  4.379
+   RB =  10
+   RE =  0
+   RC =  1
+   CJS =  0
+   CJE =  8.307e-12
+   CJC =  5.777e-12
+   VJE =  0.75
+   VJC =  0.75
+   TF =  3.854e-10
+   TR =  7.216e-10
+   MJE =  0.384
+   MJC =  0.3199
+   VA =  37.37
+   ISE =  4.272e-12
+   IKF =  0.1072
+   NE =  1.971
+   NF =  1
+   NR =  1
+   VAR =  100
+   IKR =  0
+   ISC =  0
+   NC =  2
+   IRB =  1e+30
+   RBM =  0
+   XTF =  8
+   VTF =  3
+   ITF =  0.17
+   PTF =  0
+   XCJC =  1
+   VJS =  0.75
+   MJS =  0
+   XTB =  1.5
+   EG =  1.11
+   XTI =  3
+   KF =  0
+   AF =  1
+   FC =  0.5
+   TNOM =  27
)

.MODEL KT375B NPN (
+   IS =  6.734e-15
+   BF =  420
+   BR =  0.7371
+   RB =  10
+   RE =  0
+   RC =  1
+   CJS =  0
+   CJE =  4.493e-12
+   CJC =  3.638e-12
+   VJE =  0.75
+   VJC =  0.75
+   TF =  3.012e-10
+   TR =  2.395e-07
+   MJE =  0.2593
+   MJC =  0.3085
+   VA =  74.03
+   ISE =  6.734e-15
+   IKF =  0.16678
+   NE =  1.6
+   NF =  1
+   NR =  1
+   VAR =  100
+   IKR =  0
+   ISC =  0
+   NC =  2
+   IRB =  1e+30
+   RBM =  0
+   XTF =  2
+   VTF =  4
+   ITF =  0.4
+   PTF =  0
+   XCJC =  1
+   VJS =  0.75
+   MJS =  0
+   XTB =  1.5
+   EG =  1.11
+   XTI =  3
+   KF =  0
+   AF =  1
+   FC =  0.5
+   TNOM =  27
)
